# Generated by REPEAT Assigner based on pymatgen
data_DB0-m2_o1_o3_f0_nbo.sym.33
_audit_creation_date              2022-05-24
_audit_creation_method            REPEAT_Assigner
_cell_length_a                    21.633800
_cell_length_b                    21.633800
_cell_length_c                    38.688406
_cell_angle_alpha                 90.000000
_cell_angle_beta                  90.000000
_cell_angle_gamma                 90.000000
_cell_volume                      18106.997680
_symmetry_space_group_name_H-M    P1
_symmetry_Int_Tables_number       1
loop_
    _symmetry_equiv_pos_site_id
    _symmetry_equiv_pos_as_xyz
    1  x,y,z
loop_
    _atom_site_type_symbol
    _atom_site_label
    _atom_site_fract_x
    _atom_site_fract_y
    _atom_site_fract_z
    _atom_type_partial_charge
    C   C1    0.617560  0.000000  0.500000  0.672469
    C   C2    0.000000  0.500000  0.565613  0.340151
    C   C3    0.449820  0.781252  0.986599  -0.097707
    C   C4    0.218748  0.550180  0.013402  -0.097541
    C   C5    0.550180  0.781252  0.013402  -0.097493
    C   C6    0.781252  0.449820  0.013401  -0.097718
    C   C7    0.449820  0.218748  0.013402  -0.097687
    C   C8    0.782782  0.952254  0.484175  -0.455372
    C   C9    0.047746  0.782782  0.484175  -0.455511
    C   C10   0.217218  0.047746  0.484175  -0.455507
    C   C11   0.952254  0.217218  0.484175  -0.455360
    C   C12   0.782782  0.047746  0.515825  -0.455467
    C   C13   0.500000  0.000000  0.434387  0.340225
    C   C14   0.047746  0.217218  0.515825  -0.455509
    C   C15   0.217218  0.952254  0.515825  -0.455356
    C   C16   0.952254  0.782782  0.515825  -0.455394
    C   C17   0.282782  0.452254  0.984175  -0.455395
    C   C18   0.547746  0.282782  0.984175  -0.455441
    C   C19   0.717218  0.547746  0.984175  -0.455461
    C   C20   0.452254  0.717218  0.984175  -0.455325
    C   C21   0.282782  0.547746  0.015825  -0.455439
    C   C22   0.547746  0.717218  0.015825  -0.455460
    C   C23   0.717218  0.452254  0.015825  -0.455317
    C   C24   0.000000  0.500000  0.434387  0.339885
    C   C25   0.452254  0.282782  0.015825  -0.455387
    C   C26   0.814853  0.000000  0.500000  0.566616
    C   C27   0.000000  0.814853  0.500000  0.566659
    C   C28   0.185147  0.000000  0.500000  0.566697
    C   C29   0.000000  0.185147  0.500000  0.566676
    C   C30   0.314853  0.500000  0.000000  0.566612
    C   C31   0.500000  0.314853  0.000000  0.566610
    C   C32   0.685147  0.500000  0.000000  0.566662
    C   C33   0.500000  0.685147  0.000000  0.566666
    C   C34   0.686065  0.000000  0.500000  0.109657
    C   C35   0.000000  0.500000  0.065613  0.340017
    C   C36   0.000000  0.686065  0.500000  0.109527
    C   C37   0.313935  0.000000  0.500000  0.109610
    C   C38   0.000000  0.313935  0.500000  0.109623
    C   C39   0.186065  0.500000  0.000000  0.109658
    C   C40   0.500000  0.186065  0.000000  0.109662
    C   C41   0.813935  0.500000  0.000000  0.109669
    C   C42   0.500000  0.813935  0.000000  0.109654
    C   C43   0.000000  0.117356  0.500000  0.321889
    C   C44   0.882644  0.000000  0.500000  0.321842
    C   C45   0.000000  0.882644  0.500000  0.321841
    C   C46   0.500000  0.000000  0.065613  0.340272
    C   C47   0.117356  0.000000  0.500000  0.321887
    C   C48   0.500000  0.617356  0.000000  0.321893
    C   C49   0.382644  0.500000  0.000000  0.321851
    C   C50   0.500000  0.382644  0.000000  0.321846
    C   C51   0.617356  0.500000  0.000000  0.321892
    C   C52   0.522389  0.888750  0.897826  0.868239
    C   C53   0.589594  0.806181  0.911618  0.346294
    C   C54   0.111250  0.522390  0.897826  0.867988
    C   C55   0.193819  0.589594  0.911618  0.346165
    C   C56   0.477611  0.111250  0.897826  0.868006
    C   C57   0.000000  0.500000  0.934387  0.340289
    C   C58   0.410406  0.193818  0.911618  0.346199
    C   C59   0.888750  0.477611  0.897826  0.867988
    C   C60   0.806182  0.410406  0.911618  0.346231
    C   C61   0.522389  0.111250  0.102174  0.867960
    C   C62   0.589594  0.193819  0.088382  0.346187
    C   C63   0.111250  0.477611  0.102174  0.867977
    C   C64   0.193818  0.410406  0.088382  0.346175
    C   C65   0.477611  0.888750  0.102174  0.867990
    C   C66   0.410406  0.806182  0.088382  0.346236
    C   C67   0.888750  0.522389  0.102174  0.868232
    C   C68   0.500000  0.000000  0.934387  0.339999
    C   C69   0.806181  0.589594  0.088382  0.346339
    C   C70   0.022389  0.388750  0.397826  0.868213
    C   C71   0.089594  0.306181  0.411618  0.346328
    C   C72   0.611250  0.022389  0.397826  0.867958
    C   C73   0.693819  0.089594  0.411618  0.346259
    C   C74   0.977611  0.611250  0.397826  0.868128
    C   C75   0.910406  0.693818  0.411618  0.346178
    C   C76   0.388750  0.977611  0.397826  0.868327
    C   C77   0.306182  0.910406  0.411618  0.346152
    C   C78   0.022389  0.611250  0.602174  0.868014
    C   C79   0.509442  0.945578  0.878530  -0.205639
    C   C80   0.089594  0.693819  0.588382  0.346256
    C   C81   0.611250  0.977611  0.602174  0.867991
    C   C82   0.693818  0.910406  0.588382  0.346225
    C   C83   0.977611  0.388750  0.602174  0.868239
    C   C84   0.910406  0.306182  0.588382  0.346204
    C   C85   0.388750  0.022389  0.602174  0.868221
    C   C86   0.306181  0.089594  0.588382  0.346323
    C   C87   0.494386  0.884983  0.825030  0.854800
    C   C88   0.438448  0.824787  0.784731  0.025742
    C   C89   0.115017  0.494386  0.825030  0.854511
    C   C90   0.054422  0.509442  0.878530  -0.205394
    C   C91   0.175213  0.438448  0.784731  0.025896
    C   C92   0.505614  0.115016  0.825030  0.854140
    C   C93   0.561552  0.175213  0.784731  0.025807
    C   C94   0.884984  0.505615  0.825030  0.854826
    C   C95   0.824788  0.561552  0.784731  0.025604
    C   C96   0.494386  0.115017  0.174970  0.854535
    C   C97   0.438448  0.175213  0.215269  0.025813
    C   C98   0.115016  0.505614  0.174970  0.854270
    C   C99   0.175213  0.561552  0.215269  0.025874
    C   C100  0.505615  0.884984  0.174970  0.854828
    C   C101  0.490558  0.054422  0.878530  -0.205606
    C   C102  0.561552  0.824788  0.215269  0.025613
    C   C103  0.884984  0.494385  0.174970  0.854815
    C   C104  0.824787  0.438448  0.215269  0.025650
    C   C105  0.994386  0.384983  0.325030  0.854818
    C   C106  0.938448  0.324787  0.284731  0.025698
    C   C107  0.615017  0.994386  0.325030  0.854436
    C   C108  0.675213  0.938448  0.284731  0.025725
    C   C109  0.005614  0.615016  0.325030  0.854409
    C   C110  0.061552  0.675212  0.284731  0.025811
    C   C111  0.384984  0.005615  0.325030  0.854414
    C   C112  0.000000  0.617560  0.500000  0.672570
    C   C113  0.945578  0.490558  0.878530  -0.205408
    C   C114  0.324788  0.061552  0.284731  0.025778
    C   C115  0.994386  0.615017  0.674970  0.854460
    C   C116  0.938448  0.675213  0.715269  0.025731
    C   C117  0.615016  0.005614  0.674970  0.854416
    C   C118  0.675213  0.061552  0.715269  0.025732
    C   C119  0.005615  0.384984  0.674970  0.854436
    C   C120  0.061552  0.324788  0.715269  0.025775
    C   C121  0.384983  0.994386  0.674970  0.854754
    C   C122  0.324787  0.938448  0.715269  0.025671
    C   C123  0.686183  0.895292  0.472990  0.795008
    C   C124  0.509442  0.054422  0.121470  -0.205359
    C   C125  0.633890  0.801067  0.483315  -0.098354
    C   C126  0.104708  0.686183  0.472990  0.795043
    C   C127  0.198933  0.633890  0.483315  -0.098371
    C   C128  0.313817  0.104708  0.472990  0.795085
    C   C129  0.366110  0.198933  0.483315  -0.098412
    C   C130  0.895292  0.313817  0.472990  0.794988
    C   C131  0.801067  0.366110  0.483315  -0.098408
    C   C132  0.686183  0.104708  0.527010  0.795062
    C   C133  0.633890  0.198933  0.516685  -0.098395
    C   C134  0.104708  0.313817  0.527010  0.795042
    C   C135  0.054422  0.490558  0.121470  -0.205572
    C   C136  0.198933  0.366110  0.516685  -0.098394
    C   C137  0.313817  0.895292  0.527010  0.795094
    C   C138  0.366110  0.801067  0.516685  -0.098318
    C   C139  0.895292  0.686183  0.527010  0.795086
    C   C140  0.801067  0.633890  0.516685  -0.098375
    C   C141  0.186183  0.395292  0.972990  0.795181
    C   C142  0.133890  0.301067  0.983315  -0.098339
    C   C143  0.604708  0.186183  0.972990  0.794995
    C   C144  0.698933  0.133890  0.983315  -0.098371
    C   C145  0.813817  0.604708  0.972990  0.795028
    C   C146  0.490558  0.945578  0.121470  -0.205396
    C   C147  0.866110  0.698933  0.983315  -0.098404
    C   C148  0.395292  0.813817  0.972990  0.795126
    C   C149  0.301067  0.866110  0.983315  -0.098398
    C   C150  0.186183  0.604708  0.027010  0.795017
    C   C151  0.133890  0.698933  0.016685  -0.098360
    C   C152  0.604708  0.813817  0.027010  0.795037
    C   C153  0.698933  0.866110  0.016685  -0.098399
    C   C154  0.813817  0.395292  0.027010  0.795114
    C   C155  0.866110  0.301067  0.016685  -0.098409
    C   C156  0.395292  0.186183  0.027010  0.795160
    C   C157  0.945578  0.509442  0.121470  -0.205621
    C   C158  0.301067  0.133890  0.016685  -0.098345
    C   C159  0.816516  0.903638  0.465159  0.834972
    C   C160  0.880763  0.874631  0.418532  -0.021301
    C   C161  0.096362  0.816516  0.465159  0.835000
    C   C162  0.125369  0.880763  0.418532  -0.021444
    C   C163  0.183484  0.096362  0.465159  0.834933
    C   C164  0.119237  0.125369  0.418532  -0.021275
    C   C165  0.903638  0.183484  0.465160  0.834924
    C   C166  0.874631  0.119237  0.418532  -0.021229
    C   C167  0.816516  0.096362  0.534841  0.834995
    C   C168  0.009442  0.445578  0.378530  -0.205467
    C   C169  0.880763  0.125369  0.581468  -0.021477
    C   C170  0.096362  0.183484  0.534841  0.834939
    C   C171  0.125369  0.119237  0.581468  -0.021275
    C   C172  0.183484  0.903638  0.534840  0.834911
    C   C173  0.119237  0.874631  0.581468  -0.021231
    C   C174  0.903638  0.816516  0.534841  0.834976
    C   C175  0.874631  0.880763  0.581468  -0.021284
    C   C176  0.316516  0.403638  0.965159  0.834965
    C   C177  0.380763  0.374631  0.918532  -0.021345
    C   C178  0.596362  0.316516  0.965159  0.835015
    C   C179  0.554422  0.009442  0.378530  -0.205507
    C   C180  0.625369  0.380763  0.918532  -0.021432
    C   C181  0.683484  0.596362  0.965159  0.834943
    C   C182  0.619237  0.625369  0.918532  -0.021211
    C   C183  0.403638  0.683484  0.965160  0.834883
    C   C184  0.374631  0.619237  0.918532  -0.021248
    C   C185  0.316516  0.596362  0.034841  0.835013
    C   C186  0.380763  0.625369  0.081468  -0.021431
    C   C187  0.596362  0.683484  0.034841  0.834941
    C   C188  0.625369  0.619237  0.081468  -0.021211
    C   C189  0.683484  0.403638  0.034840  0.834883
    C   C190  0.990558  0.554422  0.378530  -0.205452
    C   C191  0.619237  0.374631  0.081468  -0.021245
    C   C192  0.403638  0.316516  0.034841  0.834961
    C   C193  0.374631  0.380763  0.081468  -0.021345
    C   C194  0.445578  0.990558  0.378530  -0.205733
    C   C195  0.009442  0.554422  0.621470  -0.205441
    C   C196  0.382440  0.000000  0.500000  0.672501
    C   C197  0.554422  0.990558  0.621470  -0.205447
    C   C198  0.990558  0.445578  0.621470  -0.205595
    C   C199  0.445578  0.009442  0.621470  -0.205506
    C   C200  0.503848  0.944560  0.842794  -0.254265
    C   C201  0.055440  0.503849  0.842794  -0.254207
    C   C202  0.496151  0.055440  0.842794  -0.253948
    C   C203  0.944560  0.496152  0.842794  -0.254374
    C   C204  0.503849  0.055440  0.157206  -0.254238
    C   C205  0.055440  0.496151  0.157206  -0.254037
    C   C206  0.496152  0.944560  0.157206  -0.254379
    C   C207  0.000000  0.382440  0.500000  0.672401
    C   C208  0.944560  0.503848  0.157206  -0.254254
    C   C209  0.003848  0.444559  0.342794  -0.254346
    C   C210  0.555440  0.003849  0.342794  -0.254052
    C   C211  0.996152  0.555440  0.342794  -0.254306
    C   C212  0.444560  0.996152  0.342794  -0.254110
    C   C213  0.003849  0.555441  0.657206  -0.254064
    C   C214  0.555440  0.996151  0.657206  -0.254103
    C   C215  0.996152  0.444560  0.657206  -0.254147
    C   C216  0.444560  0.003848  0.657206  -0.254319
    C   C217  0.500000  0.000000  0.824496  0.243289
    C   C218  0.117560  0.500000  0.000000  0.672486
    C   C219  0.000000  0.500000  0.824496  0.243591
    C   C220  0.500000  0.000000  0.175504  0.243590
    C   C221  0.000000  0.500000  0.175504  0.243344
    C   C222  0.000000  0.500000  0.324496  0.243519
    C   C223  0.500000  0.000000  0.324496  0.243293
    C   C224  0.000000  0.500000  0.675504  0.243263
    C   C225  0.500000  0.000000  0.675504  0.243500
    C   C226  0.500000  0.000000  0.896439  0.276093
    C   C227  0.000000  0.500000  0.896439  0.275686
    C   C228  0.500000  0.000000  0.103561  0.275678
    C   C229  0.500000  0.117560  0.000000  0.672474
    C   C230  0.000000  0.500000  0.103561  0.276079
    C   C231  0.000000  0.500000  0.396439  0.275873
    C   C232  0.500000  0.000000  0.396439  0.276021
    C   C233  0.000000  0.500000  0.603561  0.275831
    C   C234  0.500000  0.000000  0.603561  0.275798
    C   C235  0.459581  0.037146  0.767754  0.101600
    C   C236  0.962854  0.459582  0.767754  0.101743
    C   C237  0.540418  0.962854  0.767754  0.101493
    C   C238  0.037146  0.540419  0.767754  0.101591
    C   C239  0.459582  0.962854  0.232246  0.101705
    C   C240  0.882440  0.500000  0.000000  0.672442
    C   C241  0.962854  0.540418  0.232246  0.101592
    C   C242  0.540419  0.037146  0.232246  0.101587
    C   C243  0.037146  0.459581  0.232246  0.101623
    C   C244  0.959581  0.537146  0.267754  0.101661
    C   C245  0.462854  0.959582  0.267754  0.101599
    C   C246  0.040418  0.462854  0.267754  0.101637
    C   C247  0.537146  0.040419  0.267754  0.101578
    C   C248  0.959582  0.462854  0.732246  0.101591
    C   C249  0.462854  0.040418  0.732246  0.101577
    C   C250  0.040419  0.537146  0.732246  0.101556
    C   C251  0.500000  0.882440  0.000000  0.672460
    C   C252  0.537146  0.959581  0.732246  0.101599
    C   C253  0.500000  0.000000  0.713872  -0.327766
    C   C254  0.000000  0.500000  0.713872  -0.327577
    C   C255  0.500000  0.000000  0.286128  -0.327589
    C   C256  0.000000  0.500000  0.286128  -0.327746
    C   C257  0.000000  0.500000  0.213872  -0.327576
    C   C258  0.500000  0.000000  0.213872  -0.327832
    C   C259  0.000000  0.500000  0.786128  -0.327844
    C   C260  0.500000  0.000000  0.786128  -0.327514
    C   C261  0.718748  0.949820  0.486598  -0.097647
    C   C262  0.500000  0.000000  0.565613  0.339986
    C   C263  0.050180  0.718748  0.486598  -0.097455
    C   C264  0.281252  0.050180  0.486598  -0.097464
    C   C265  0.949820  0.281252  0.486599  -0.097618
    C   C266  0.718748  0.050180  0.513402  -0.097534
    C   C267  0.050180  0.281252  0.513402  -0.097439
    C   C268  0.281252  0.949820  0.513401  -0.097659
    C   C269  0.949820  0.718748  0.513402  -0.097618
    C   C270  0.218748  0.449820  0.986598  -0.097679
    C   C271  0.550180  0.218748  0.986598  -0.097529
    C   C272  0.781252  0.550180  0.986598  -0.097491
    Cu  Cu1   0.500000  0.060278  0.500000  0.924129
    Cu  Cu2   0.000000  0.000000  0.533648  0.909064
    Cu  Cu3   0.500000  0.500000  0.966352  0.909067
    Cu  Cu4   0.500000  0.500000  0.033648  0.909063
    Cu  Cu5   0.939722  0.500000  0.500000  0.924060
    Cu  Cu6   0.500000  0.939722  0.500000  0.923986
    Cu  Cu7   0.060278  0.500000  0.500000  0.924098
    Cu  Cu8   0.000000  0.560278  0.000000  0.924013
    Cu  Cu9   0.439722  0.000000  0.000000  0.924129
    Cu  Cu10  0.000000  0.439722  0.000000  0.924130
    Cu  Cu11  0.560278  0.000000  0.000000  0.924013
    Cu  Cu12  0.000000  0.000000  0.466352  0.909060
    H   H1    0.426069  0.065594  0.780981  0.043377
    H   H2    0.434406  0.926070  0.280981  0.043278
    H   H3    0.316715  0.020884  0.267857  0.027751
    H   H4    0.896561  0.671119  0.731594  0.087026
    H   H5    0.932508  0.714568  0.697191  0.058367
    H   H6    0.979117  0.683285  0.732143  0.027745
    H   H7    0.671119  0.103439  0.731594  0.087027
    H   H8    0.714568  0.067492  0.697191  0.058353
    H   H9    0.683285  0.020883  0.732143  0.027752
    H   H10   0.103439  0.328881  0.731594  0.087028
    H   H11   0.067493  0.285432  0.697191  0.058294
    H   H12   0.020884  0.316716  0.732143  0.027742
    H   H13   0.073930  0.434406  0.280981  0.043234
    H   H14   0.328881  0.896561  0.731594  0.087041
    H   H15   0.285432  0.932507  0.697191  0.058403
    H   H16   0.316715  0.979116  0.732143  0.027745
    H   H17   0.615913  0.774311  0.505598  0.088740
    H   H18   0.668431  0.772611  0.469313  0.095649
    H   H19   0.594949  0.812870  0.465861  0.052406
    H   H20   0.225689  0.615913  0.505598  0.088737
    H   H21   0.227390  0.668431  0.469313  0.095681
    H   H22   0.187130  0.594949  0.465861  0.052391
    H   H23   0.384087  0.225689  0.505598  0.088746
    H   H24   0.565594  0.073931  0.280981  0.043349
    H   H25   0.331569  0.227390  0.469313  0.095688
    H   H26   0.405051  0.187131  0.465861  0.052411
    H   H27   0.774311  0.384087  0.505598  0.088761
    H   H28   0.772610  0.331569  0.469314  0.095659
    H   H29   0.812870  0.405051  0.465862  0.052402
    H   H30   0.615913  0.225689  0.494402  0.088742
    H   H31   0.668431  0.227390  0.530687  0.095686
    H   H32   0.594949  0.187130  0.534139  0.052397
    H   H33   0.225689  0.384087  0.494402  0.088742
    H   H34   0.227390  0.331569  0.530687  0.095687
    H   H35   0.926070  0.434406  0.719019  0.043277
    H   H36   0.187131  0.405051  0.534139  0.052402
    H   H37   0.384087  0.774311  0.494402  0.088751
    H   H38   0.331569  0.772610  0.530686  0.095632
    H   H39   0.405051  0.812870  0.534138  0.052383
    H   H40   0.774311  0.615913  0.494402  0.088749
    H   H41   0.772610  0.668431  0.530687  0.095661
    H   H42   0.812870  0.594949  0.534139  0.052415
    H   H43   0.115913  0.274311  0.005598  0.088741
    H   H44   0.168431  0.272611  0.969313  0.095640
    H   H45   0.094949  0.312870  0.965861  0.052403
    H   H46   0.434406  0.073930  0.719019  0.043267
    H   H47   0.725689  0.115913  0.005598  0.088735
    H   H48   0.727390  0.168431  0.969313  0.095678
    H   H49   0.687130  0.094949  0.965861  0.052394
    H   H50   0.884087  0.725689  0.005598  0.088754
    H   H51   0.831569  0.727390  0.969313  0.095677
    H   H52   0.905051  0.687130  0.965862  0.052386
    H   H53   0.274311  0.884087  0.005598  0.088760
    H   H54   0.272610  0.831569  0.969313  0.095664
    H   H55   0.312870  0.905051  0.965862  0.052414
    H   H56   0.115913  0.725689  0.994402  0.088734
    H   H57   0.073931  0.565594  0.719019  0.043358
    H   H58   0.168431  0.727390  0.030687  0.095674
    H   H59   0.094949  0.687130  0.034139  0.052390
    H   H60   0.725689  0.884087  0.994402  0.088754
    H   H61   0.727390  0.831569  0.030687  0.095674
    H   H62   0.687130  0.905051  0.034138  0.052385
    H   H63   0.884087  0.274311  0.994402  0.088762
    H   H64   0.831569  0.272610  0.030687  0.095667
    H   H65   0.905051  0.312870  0.034138  0.052417
    H   H66   0.274311  0.115913  0.994402  0.088741
    H   H67   0.272611  0.168431  0.030687  0.095642
    H   H68   0.565594  0.926069  0.719019  0.043376
    H   H69   0.312870  0.094949  0.034139  0.052404
    H   H70   0.912778  0.896688  0.399858  0.094139
    H   H71   0.843261  0.851004  0.404117  0.083060
    H   H72   0.906704  0.840322  0.434147  -0.014243
    H   H73   0.103311  0.912778  0.399858  0.094176
    H   H74   0.148996  0.843261  0.404117  0.083092
    H   H75   0.159678  0.906704  0.434147  -0.014225
    H   H76   0.087222  0.103311  0.399858  0.094140
    H   H77   0.156739  0.148996  0.404117  0.083058
    H   H78   0.093296  0.159678  0.434147  -0.014258
    H   H79   0.635963  0.788960  0.904117  0.023703
    H   H80   0.896688  0.087222  0.399858  0.094122
    H   H81   0.851004  0.156739  0.404117  0.083042
    H   H82   0.840322  0.093296  0.434147  -0.014233
    H   H83   0.912778  0.103311  0.600142  0.094183
    H   H84   0.843261  0.148996  0.595883  0.083096
    H   H85   0.906704  0.159678  0.565853  -0.014211
    H   H86   0.103311  0.087222  0.600142  0.094141
    H   H87   0.148996  0.156739  0.595883  0.083059
    H   H88   0.159678  0.093296  0.565853  -0.014263
    H   H89   0.087222  0.896688  0.600142  0.094123
    H   H90   0.554589  0.770324  0.905515  0.005128
    H   H91   0.156739  0.851004  0.595883  0.083043
    H   H92   0.093296  0.840322  0.565853  -0.014235
    H   H93   0.896688  0.912778  0.600142  0.094130
    H   H94   0.851004  0.843261  0.595883  0.083063
    H   H95   0.840322  0.906704  0.565853  -0.014226
    H   H96   0.412778  0.396689  0.899858  0.094149
    H   H97   0.343261  0.351004  0.904117  0.083072
    H   H98   0.406704  0.340322  0.934147  -0.014214
    H   H99   0.603311  0.412778  0.899858  0.094176
    H   H100  0.648996  0.343261  0.904117  0.083088
    H   H101  0.589365  0.815943  0.939728  -0.114995
    H   H102  0.659678  0.406704  0.934147  -0.014225
    H   H103  0.587222  0.603312  0.899858  0.094118
    H   H104  0.656739  0.648996  0.904117  0.083046
    H   H105  0.593296  0.659678  0.934147  -0.014268
    H   H106  0.396688  0.587222  0.899858  0.094129
    H   H107  0.351004  0.656739  0.904117  0.083049
    H   H108  0.340322  0.593296  0.934147  -0.014232
    H   H109  0.412778  0.603311  0.100142  0.094176
    H   H110  0.343261  0.648996  0.095883  0.083089
    H   H111  0.406704  0.659678  0.065853  -0.014226
    H   H112  0.934406  0.426070  0.780981  0.043209
    H   H113  0.211040  0.635963  0.904117  0.023716
    H   H114  0.603312  0.587222  0.100142  0.094119
    H   H115  0.648996  0.656739  0.095883  0.083046
    H   H116  0.659678  0.593296  0.065853  -0.014268
    H   H117  0.587222  0.396688  0.100142  0.094128
    H   H118  0.656739  0.351004  0.095883  0.083045
    H   H119  0.593296  0.340322  0.065853  -0.014233
    H   H120  0.396689  0.412778  0.100142  0.094149
    H   H121  0.351004  0.343261  0.095883  0.083071
    H   H122  0.340322  0.406704  0.065853  -0.014216
    H   H123  0.229676  0.554590  0.905515  0.005143
    H   H124  0.184057  0.589365  0.939728  -0.114901
    H   H125  0.364037  0.211040  0.904117  0.023706
    H   H126  0.445410  0.229676  0.905515  0.005099
    H   H127  0.410635  0.184057  0.939728  -0.114936
    H   H128  0.788960  0.364037  0.904116  0.023689
    H   H129  0.770324  0.445411  0.905515  0.005150
    H   H130  0.815943  0.410635  0.939728  -0.114927
    H   H131  0.635963  0.211040  0.095883  0.023717
    H   H132  0.573930  0.934406  0.780981  0.043286
    H   H133  0.554590  0.229676  0.094485  0.005137
    H   H134  0.589365  0.184057  0.060272  -0.114912
    H   H135  0.211040  0.364037  0.095883  0.023709
    H   H136  0.229676  0.445410  0.094485  0.005107
    H   H137  0.184057  0.410635  0.060272  -0.114927
    H   H138  0.364037  0.788960  0.095884  0.023687
    H   H139  0.445411  0.770324  0.094485  0.005148
    H   H140  0.410635  0.815943  0.060272  -0.114929
    H   H141  0.788960  0.635963  0.095883  0.023696
    H   H142  0.770324  0.554589  0.094485  0.005117
    H   H143  0.065594  0.573931  0.780981  0.043375
    H   H144  0.815943  0.589365  0.060272  -0.115007
    H   H145  0.135963  0.288960  0.404117  0.023697
    H   H146  0.054589  0.270324  0.405515  0.005108
    H   H147  0.089365  0.315943  0.439728  -0.114991
    H   H148  0.711040  0.135963  0.404117  0.023704
    H   H149  0.729676  0.054590  0.405515  0.005117
    H   H150  0.684057  0.089365  0.439728  -0.114947
    H   H151  0.864037  0.711040  0.404117  0.023707
    H   H152  0.945411  0.729676  0.405515  0.005145
    H   H153  0.910635  0.684057  0.439728  -0.114938
    H   H154  0.426070  0.934406  0.219019  0.043218
    H   H155  0.288960  0.864037  0.404116  0.023697
    H   H156  0.270324  0.945411  0.405515  0.005191
    H   H157  0.315943  0.910635  0.439728  -0.114913
    H   H158  0.135963  0.711040  0.595883  0.023704
    H   H159  0.054590  0.729676  0.594485  0.005118
    H   H160  0.089365  0.684057  0.560272  -0.114945
    H   H161  0.711040  0.864037  0.595883  0.023701
    H   H162  0.729676  0.945410  0.594485  0.005098
    H   H163  0.684057  0.910635  0.560272  -0.114936
    H   H164  0.864037  0.288960  0.595884  0.023691
    H   H165  0.934406  0.573930  0.219019  0.043236
    H   H166  0.945411  0.270324  0.594485  0.005187
    H   H167  0.910635  0.315943  0.560272  -0.114962
    H   H168  0.288960  0.135963  0.595883  0.023696
    H   H169  0.270324  0.054589  0.594485  0.005116
    H   H170  0.315943  0.089365  0.560272  -0.114989
    H   H171  0.396561  0.828881  0.768406  0.087022
    H   H172  0.432507  0.785432  0.802809  0.058384
    H   H173  0.479116  0.816715  0.767857  0.027739
    H   H174  0.171120  0.396562  0.768406  0.086966
    H   H175  0.214568  0.432508  0.802809  0.058317
    H   H176  0.573931  0.065594  0.219019  0.043371
    H   H177  0.183285  0.479117  0.767857  0.027755
    H   H178  0.603439  0.171119  0.768406  0.087022
    H   H179  0.567492  0.214568  0.802809  0.058314
    H   H180  0.520883  0.183285  0.767857  0.027774
    H   H181  0.828881  0.603439  0.768406  0.087062
    H   H182  0.785432  0.567493  0.802809  0.058383
    H   H183  0.816715  0.520884  0.767857  0.027735
    H   H184  0.396561  0.171119  0.231594  0.086995
    H   H185  0.432508  0.214568  0.197191  0.058329
    H   H186  0.479117  0.183285  0.232143  0.027761
    H   H187  0.065594  0.426069  0.219019  0.043371
    H   H188  0.171119  0.603439  0.231594  0.087012
    H   H189  0.214568  0.567492  0.197191  0.058285
    H   H190  0.183285  0.520883  0.232143  0.027783
    H   H191  0.603439  0.828881  0.231594  0.087058
    H   H192  0.567493  0.785432  0.197191  0.058379
    H   H193  0.520884  0.816715  0.232143  0.027736
    H   H194  0.828881  0.396561  0.231594  0.087051
    H   H195  0.785432  0.432507  0.197191  0.058412
    H   H196  0.816715  0.479116  0.232143  0.027748
    H   H197  0.896561  0.328881  0.268406  0.087040
    H   H198  0.926069  0.565594  0.280981  0.043334
    H   H199  0.932507  0.285432  0.302809  0.058404
    H   H200  0.979116  0.316715  0.267857  0.027730
    H   H201  0.671119  0.896561  0.268406  0.087028
    H   H202  0.714568  0.932508  0.302809  0.058368
    H   H203  0.683285  0.979117  0.267857  0.027747
    H   H204  0.103439  0.671119  0.268406  0.087006
    H   H205  0.067492  0.714568  0.302809  0.058287
    H   H206  0.020883  0.683285  0.267857  0.027762
    H   H207  0.328881  0.103439  0.268406  0.087030
    H   H208  0.285432  0.067493  0.302809  0.058299
    O   O1    0.588074  0.050705  0.490322  -0.482659
    O   O2    0.449295  0.088074  0.990322  -0.482587
    O   O3    0.621562  0.946472  0.303039  -0.391223
    O   O4    0.969497  0.657673  0.329082  -0.535402
    O   O5    0.053528  0.621562  0.303038  -0.391081
    O   O6    0.342327  0.969497  0.329082  -0.535408
    O   O7    0.378438  0.053528  0.303038  -0.391046
    O   O8    0.030504  0.657673  0.670918  -0.535316
    O   O9    0.946472  0.621562  0.696961  -0.391223
    O   O10   0.657673  0.969496  0.670918  -0.535340
    O   O11   0.621562  0.053528  0.696961  -0.391180
    O   O12   0.969497  0.342327  0.670918  -0.535410
    O   O13   0.911926  0.449295  0.990322  -0.482550
    O   O14   0.053528  0.378438  0.696962  -0.391039
    O   O15   0.342327  0.030503  0.670918  -0.535479
    O   O16   0.378438  0.946472  0.696961  -0.391186
    O   O17   0.688072  0.883379  0.442192  -0.495661
    O   O18   0.661156  0.854204  0.495138  -0.273552
    O   O19   0.116621  0.688072  0.442192  -0.495703
    O   O20   0.145796  0.661157  0.495138  -0.273566
    O   O21   0.311928  0.116621  0.442192  -0.495707
    O   O22   0.338843  0.145796  0.495138  -0.273557
    O   O23   0.883379  0.311928  0.442192  -0.495725
    O   O24   0.550705  0.911926  0.990322  -0.482669
    O   O25   0.854204  0.338844  0.495138  -0.273480
    O   O26   0.688072  0.116621  0.557808  -0.495701
    O   O27   0.661157  0.145796  0.504862  -0.273557
    O   O28   0.116621  0.311928  0.557808  -0.495700
    O   O29   0.145796  0.338843  0.504862  -0.273553
    O   O30   0.311928  0.883379  0.557808  -0.495747
    O   O31   0.338844  0.854204  0.504862  -0.273559
    O   O32   0.883379  0.688072  0.557808  -0.495691
    O   O33   0.854204  0.661156  0.504862  -0.273578
    O   O34   0.188072  0.383379  0.942192  -0.495710
    O   O35   0.088074  0.449295  0.009678  -0.482589
    O   O36   0.161156  0.354204  0.995138  -0.273607
    O   O37   0.616621  0.188072  0.942192  -0.495684
    O   O38   0.645796  0.161157  0.995138  -0.273549
    O   O39   0.811928  0.616621  0.942192  -0.495694
    O   O40   0.838843  0.645796  0.995138  -0.273513
    O   O41   0.383379  0.811928  0.942192  -0.495737
    O   O42   0.354204  0.838844  0.995138  -0.273571
    O   O43   0.188072  0.616621  0.057808  -0.495690
    O   O44   0.161157  0.645796  0.004862  -0.273563
    O   O45   0.616621  0.811928  0.057808  -0.495695
    O   O46   0.449295  0.911926  0.009678  -0.482552
    O   O47   0.645796  0.838843  0.004862  -0.273517
    O   O48   0.811928  0.383379  0.057808  -0.495731
    O   O49   0.838844  0.354204  0.004862  -0.273562
    O   O50   0.383379  0.188072  0.057808  -0.495707
    O   O51   0.354204  0.161156  0.004862  -0.273594
    O   O52   0.804988  0.849231  0.470206  -0.484847
    O   O53   0.855966  0.919147  0.439649  -0.359647
    O   O54   0.150769  0.804988  0.470206  -0.484831
    O   O55   0.080853  0.855966  0.439649  -0.359574
    O   O56   0.195012  0.150769  0.470206  -0.484822
    O   O57   0.911926  0.550705  0.009678  -0.482663
    O   O58   0.144034  0.080853  0.439649  -0.359632
    O   O59   0.849231  0.195012  0.470206  -0.484820
    O   O60   0.919147  0.144034  0.439649  -0.359716
    O   O61   0.804988  0.150769  0.529794  -0.484830
    O   O62   0.855966  0.080853  0.560351  -0.359568
    O   O63   0.150769  0.195012  0.529794  -0.484816
    O   O64   0.080853  0.144034  0.560351  -0.359635
    O   O65   0.195012  0.849231  0.529794  -0.484814
    O   O66   0.144034  0.919147  0.560351  -0.359712
    O   O67   0.849231  0.804988  0.529794  -0.484874
    O   O68   0.550705  0.088074  0.009678  -0.482676
    O   O69   0.919147  0.855966  0.560351  -0.359656
    O   O70   0.304988  0.349231  0.970206  -0.484866
    O   O71   0.355966  0.419147  0.939649  -0.359619
    O   O72   0.650769  0.304988  0.970206  -0.484833
    O   O73   0.580853  0.355966  0.939649  -0.359602
    O   O74   0.695012  0.650769  0.970206  -0.484823
    O   O75   0.644034  0.580853  0.939649  -0.359671
    O   O76   0.349231  0.695012  0.970206  -0.484814
    O   O77   0.419147  0.644034  0.939649  -0.359697
    O   O78   0.304988  0.650769  0.029794  -0.484833
    O   O79   0.517335  0.050909  0.549368  -0.519289
    O   O80   0.355966  0.580853  0.060351  -0.359600
    O   O81   0.650769  0.695012  0.029794  -0.484824
    O   O82   0.580853  0.644034  0.060351  -0.359670
    O   O83   0.695012  0.349231  0.029794  -0.484814
    O   O84   0.644034  0.419147  0.060351  -0.359697
    O   O85   0.349231  0.304988  0.029794  -0.484860
    O   O86   0.419147  0.355966  0.060351  -0.359617
    O   O87   0.949092  0.517335  0.549368  -0.519479
    O   O88   0.482665  0.949091  0.549368  -0.519232
    O   O89   0.949295  0.588074  0.490322  -0.482558
    O   O90   0.050909  0.482665  0.549368  -0.519320
    O   O91   0.517335  0.949092  0.450631  -0.519413
    O   O92   0.949091  0.482665  0.450632  -0.519272
    O   O93   0.482665  0.050909  0.450632  -0.519393
    O   O94   0.050909  0.517335  0.450632  -0.519266
    O   O95   0.017335  0.550909  0.049369  -0.519246
    O   O96   0.449092  0.017335  0.049368  -0.519492
    O   O97   0.982665  0.449091  0.049368  -0.519357
    O   O98   0.550909  0.982665  0.049368  -0.519297
    O   O99   0.017335  0.449092  0.950632  -0.519501
    O   O100  0.411926  0.949295  0.490322  -0.482593
    O   O101  0.449091  0.982665  0.950632  -0.519353
    O   O102  0.982665  0.550909  0.950632  -0.519299
    O   O103  0.550909  0.017335  0.950631  -0.519238
    O   O104  0.017469  0.088277  0.471632  -0.450057
    O   O105  0.911723  0.017469  0.471632  -0.450021
    O   O106  0.982531  0.911723  0.471632  -0.450049
    O   O107  0.088277  0.982531  0.471632  -0.450034
    O   O108  0.017469  0.911723  0.528368  -0.450024
    O   O109  0.911723  0.982531  0.528368  -0.450055
    O   O110  0.982531  0.088277  0.528368  -0.450029
    O   O111  0.050705  0.411926  0.490322  -0.482643
    O   O112  0.088277  0.017469  0.528368  -0.450061
    O   O113  0.517469  0.588277  0.971632  -0.450069
    O   O114  0.411723  0.517469  0.971632  -0.450026
    O   O115  0.482531  0.411723  0.971632  -0.450054
    O   O116  0.588277  0.482531  0.971632  -0.450024
    O   O117  0.517469  0.411723  0.028368  -0.450023
    O   O118  0.411723  0.482531  0.028368  -0.450055
    O   O119  0.482531  0.588277  0.028368  -0.450024
    O   O120  0.588277  0.517469  0.028368  -0.450066
    O   O121  0.484618  0.868789  0.918221  -0.552280
    O   O122  0.588074  0.949295  0.509678  -0.482577
    O   O123  0.576770  0.859265  0.893601  -0.469967
    O   O124  0.131211  0.484618  0.918221  -0.552224
    O   O125  0.140735  0.576770  0.893601  -0.469821
    O   O126  0.515382  0.131211  0.918221  -0.552187
    O   O127  0.423230  0.140735  0.893601  -0.469805
    O   O128  0.868789  0.515382  0.918221  -0.552200
    O   O129  0.859265  0.423230  0.893601  -0.469857
    O   O130  0.484618  0.131211  0.081779  -0.552178
    O   O131  0.576770  0.140735  0.106399  -0.469858
    O   O132  0.131211  0.515382  0.081779  -0.552187
    O   O133  0.949295  0.411926  0.509678  -0.482460
    O   O134  0.140735  0.423230  0.106399  -0.469791
    O   O135  0.515382  0.868789  0.081779  -0.552203
    O   O136  0.423230  0.859265  0.106399  -0.469858
    O   O137  0.868789  0.484618  0.081779  -0.552272
    O   O138  0.859265  0.576770  0.106399  -0.469990
    O   O139  0.984618  0.368789  0.418221  -0.552254
    O   O140  0.076770  0.359265  0.393601  -0.469987
    O   O141  0.631211  0.984618  0.418221  -0.552153
    O   O142  0.640735  0.076770  0.393601  -0.469879
    O   O143  0.015382  0.631211  0.418221  -0.552241
    O   O144  0.411926  0.050705  0.509678  -0.482680
    O   O145  0.923230  0.640735  0.393601  -0.469869
    O   O146  0.368789  0.015382  0.418221  -0.552265
    O   O147  0.359265  0.923231  0.393601  -0.469991
    O   O148  0.984618  0.631211  0.581779  -0.552182
    O   O149  0.076770  0.640735  0.606399  -0.469888
    O   O150  0.631211  0.015382  0.581779  -0.552201
    O   O151  0.640735  0.923230  0.606399  -0.469821
    O   O152  0.015382  0.368789  0.581779  -0.552232
    O   O153  0.923231  0.359265  0.606399  -0.469996
    O   O154  0.368789  0.984618  0.581779  -0.552274
    O   O155  0.050705  0.588074  0.509678  -0.482661
    O   O156  0.359265  0.076770  0.606399  -0.469983
    O   O157  0.530503  0.842327  0.829082  -0.535500
    O   O158  0.446472  0.878438  0.803039  -0.391238
    O   O159  0.157673  0.530504  0.829082  -0.535319
    O   O160  0.121562  0.446473  0.803039  -0.391338
    O   O161  0.469496  0.157673  0.829082  -0.535265
    O   O162  0.553528  0.121562  0.803038  -0.391158
    O   O163  0.842327  0.469497  0.829082  -0.535525
    O   O164  0.878438  0.553528  0.803039  -0.391126
    O   O165  0.530504  0.157673  0.170918  -0.535314
    O   O166  0.088074  0.550705  0.990322  -0.482677
    O   O167  0.446473  0.121562  0.196961  -0.391308
    O   O168  0.157673  0.469496  0.170918  -0.535268
    O   O169  0.121562  0.553527  0.196962  -0.391288
    O   O170  0.469497  0.842327  0.170918  -0.535528
    O   O171  0.553528  0.878438  0.196961  -0.391125
    O   O172  0.842327  0.530503  0.170918  -0.535536
    O   O173  0.878438  0.446472  0.196961  -0.391215
    O   O174  0.030503  0.342327  0.329082  -0.535479
    O   O175  0.946472  0.378438  0.303039  -0.391250
    O   O176  0.657673  0.030504  0.329082  -0.535313
