# Generated by REPEAT Assigner based on pymatgen
data_DB0-m2_o1_o3_f0_nbo.sym.39_sqe
_audit_creation_date              2022-05-24
_audit_creation_method            REPEAT_Assigner
_cell_length_a                    21.557979
_cell_length_b                    21.557979
_cell_length_c                    38.536306
_cell_angle_alpha                 90.000000
_cell_angle_beta                  90.000000
_cell_angle_gamma                 90.000000
_cell_volume                      17909.610889
_symmetry_space_group_name_H-M    P1
_symmetry_Int_Tables_number       1
loop_
    _symmetry_equiv_pos_site_id
    _symmetry_equiv_pos_as_xyz
    1  x,y,z
loop_
    _atom_site_type_symbol
    _atom_site_label
    _atom_site_fract_x
    _atom_site_fract_y
    _atom_site_fract_z
    _atom_type_partial_charge
    C   C1    0.617615  0.999999  0.500001  0.797223
    C   C2    0.000000  0.499999  0.565898  0.530240
    C   C3    0.470288  0.782477  0.973936  0.058157
    C   C4    0.217523  0.529711  0.026064  0.058210
    C   C5    0.529710  0.782476  0.026064  0.058035
    C   C6    0.782476  0.470292  0.026065  0.058381
    C   C7    0.470291  0.217523  0.026064  0.058200
    C   C8    0.781598  0.970930  0.473586  -0.176092
    C   C9    0.029071  0.781598  0.473587  -0.176289
    C   C10   0.218401  0.029071  0.473587  -0.176161
    C   C11   0.970930  0.218401  0.473586  -0.175990
    C   C12   0.781600  0.029068  0.526412  -0.176211
    C   C13   0.499999  0.000001  0.434104  0.530287
    C   C14   0.029067  0.218399  0.526413  -0.176518
    C   C15   0.218400  0.970934  0.526413  -0.176932
    C   C16   0.970933  0.781599  0.526413  -0.176535
    C   C17   0.281598  0.470930  0.973587  -0.176255
    C   C18   0.529071  0.281599  0.973587  -0.176035
    C   C19   0.718400  0.529070  0.973587  -0.176040
    C   C20   0.470931  0.718401  0.973587  -0.175971
    C   C21   0.281599  0.529068  0.026413  -0.176081
    C   C22   0.529068  0.718400  0.026413  -0.175802
    C   C23   0.718400  0.470933  0.026413  -0.176536
    C   C24   0.000001  0.500000  0.434104  0.530307
    C   C25   0.470933  0.281599  0.026413  -0.175972
    C   C26   0.814111  0.000000  0.499999  0.025242
    C   C27   0.000000  0.814111  0.499999  0.025357
    C   C28   0.185888  0.000000  0.499999  0.025440
    C   C29   0.000000  0.185888  0.499999  0.025289
    C   C30   0.314111  0.500000  0.999999  0.025221
    C   C31   0.500000  0.314111  0.000000  0.025023
    C   C32   0.685888  0.500000  0.000000  0.025357
    C   C33   0.500000  0.685888  0.999999  0.024859
    C   C34   0.685357  0.999998  0.500001  -0.188815
    C   C35   0.000000  0.500002  0.065898  0.530240
    C   C36   0.000005  0.685357  0.500001  -0.189209
    C   C37   0.314642  0.000005  0.500001  -0.189243
    C   C38   0.999997  0.314642  0.500001  -0.188817
    C   C39   0.185357  0.499999  0.000000  -0.188953
    C   C40   0.500004  0.185357  0.000001  -0.188848
    C   C41   0.814642  0.500004  0.000001  -0.188877
    C   C42   0.499999  0.814642  0.000000  -0.188831
    C   C43   0.999999  0.117824  0.499999  0.519682
    C   C44   0.882175  0.999999  0.499999  0.519734
    C   C45   0.000000  0.882175  0.499999  0.519942
    C   C46   0.500001  0.999999  0.065898  0.530387
    C   C47   0.117824  0.000000  0.499999  0.519813
    C   C48   0.499999  0.617824  0.999999  0.520183
    C   C49   0.382175  0.499999  0.999999  0.519829
    C   C50   0.500000  0.382175  0.000000  0.520172
    C   C51   0.617824  0.500000  0.000000  0.519706
    C   C52   0.684419  0.937936  0.446309  0.202541
    C   C53   0.671659  0.967984  0.415521  -0.218087
    C   C54   0.647595  0.935293  0.387900  -0.037546
    C   C55   0.635492  0.872765  0.391207  0.073759
    C   C56   0.646601  0.843139  0.422275  -0.144877
    C   C57   0.999999  0.500001  0.934104  0.530303
    C   C58   0.671268  0.875648  0.449774  -0.117653
    C   C59   0.062066  0.684420  0.446310  0.202523
    C   C60   0.032019  0.671662  0.415521  -0.218227
    C   C61   0.064710  0.647598  0.387900  -0.037371
    C   C62   0.127237  0.635493  0.391208  0.073623
    C   C63   0.156862  0.646599  0.422276  -0.144640
    C   C64   0.124353  0.671265  0.449775  -0.117765
    C   C65   0.315579  0.062066  0.446310  0.202570
    C   C66   0.328338  0.032019  0.415521  -0.218211
    C   C67   0.352403  0.064709  0.387900  -0.037350
    C   C68   0.500002  0.000000  0.934104  0.530466
    C   C69   0.364506  0.127237  0.391207  0.073537
    C   C70   0.353398  0.156862  0.422275  -0.144669
    C   C71   0.328732  0.124353  0.449774  -0.117799
    C   C72   0.937936  0.315579  0.446309  0.202743
    C   C73   0.967984  0.328341  0.415521  -0.218235
    C   C74   0.935295  0.352406  0.387900  -0.037401
    C   C75   0.872766  0.364506  0.391207  0.073507
    C   C76   0.843139  0.353396  0.422274  -0.144621
    C   C77   0.875648  0.328729  0.449773  -0.117869
    C   C78   0.684422  0.062063  0.553690  0.202765
    C   C79   0.554731  0.992308  0.878211  0.024906
    C   C80   0.671649  0.032013  0.584477  -0.218431
    C   C81   0.647587  0.064704  0.612098  -0.037388
    C   C82   0.635498  0.127235  0.608793  0.073457
    C   C83   0.646620  0.156864  0.577728  -0.144517
    C   C84   0.671286  0.124354  0.550229  -0.118141
    C   C85   0.062062  0.315577  0.553691  0.202749
    C   C86   0.032010  0.328353  0.584476  -0.218410
    C   C87   0.064701  0.352415  0.612098  -0.037621
    C   C88   0.127233  0.364501  0.608794  0.073566
    C   C89   0.156863  0.353376  0.577729  -0.144636
    C   C90   0.007693  0.554730  0.878211  0.024764
    C   C91   0.124354  0.328710  0.550230  -0.118185
    C   C92   0.315578  0.937940  0.553691  0.202218
    C   C93   0.328356  0.967992  0.584476  -0.218479
    C   C94   0.352418  0.935301  0.612098  -0.037581
    C   C95   0.364502  0.872769  0.608794  0.073496
    C   C96   0.353375  0.843139  0.577730  -0.144422
    C   C97   0.328709  0.875648  0.550231  -0.118100
    C   C98   0.937939  0.684421  0.553691  0.202297
    C   C99   0.967990  0.671646  0.584477  -0.218516
    C   C100  0.935299  0.647584  0.612098  -0.037578
    C   C101  0.445273  0.007695  0.878211  0.024949
    C   C102  0.872767  0.635497  0.608793  0.073604
    C   C103  0.843138  0.646621  0.577729  -0.144579
    C   C104  0.875647  0.671287  0.550229  -0.117917
    C   C105  0.184419  0.437936  0.946310  0.202393
    C   C106  0.171658  0.467984  0.915521  -0.218102
    C   C107  0.147594  0.435294  0.887900  -0.037779
    C   C108  0.135493  0.372765  0.891207  0.073902
    C   C109  0.146603  0.343139  0.922274  -0.144956
    C   C110  0.171270  0.375648  0.949774  -0.117514
    C   C111  0.562066  0.184420  0.946310  0.202562
    C   C112  0.000003  0.617614  0.500001  0.797519
    C   C113  0.992305  0.445272  0.878211  0.024639
    C   C114  0.532019  0.171661  0.915521  -0.218179
    C   C115  0.564709  0.147597  0.887900  -0.037480
    C   C116  0.627237  0.135494  0.891208  0.073763
    C   C117  0.656863  0.146602  0.922276  -0.144918
    C   C118  0.624353  0.171268  0.949775  -0.117595
    C   C119  0.815579  0.562065  0.946310  0.202769
    C   C120  0.828340  0.532017  0.915521  -0.218242
    C   C121  0.852405  0.564707  0.887900  -0.037485
    C   C122  0.864505  0.627236  0.891207  0.073608
    C   C123  0.853395  0.656862  0.922274  -0.144688
    C   C124  0.554729  0.007694  0.121791  0.024842
    C   C125  0.828728  0.624353  0.949774  -0.117866
    C   C126  0.437937  0.815579  0.946309  0.202572
    C   C127  0.467986  0.828343  0.915521  -0.218096
    C   C128  0.435296  0.852408  0.887900  -0.037744
    C   C129  0.372767  0.864506  0.891207  0.073705
    C   C130  0.343140  0.853393  0.922273  -0.144715
    C   C131  0.375648  0.828726  0.949773  -0.117744
    C   C132  0.184422  0.562063  0.053690  0.202838
    C   C133  0.171651  0.532014  0.084477  -0.218456
    C   C134  0.147588  0.564705  0.112098  -0.037599
    C   C135  0.007696  0.445273  0.121790  0.024662
    C   C136  0.135497  0.627235  0.108793  0.073656
    C   C137  0.146617  0.656863  0.077728  -0.144678
    C   C138  0.171283  0.624354  0.050228  -0.117995
    C   C139  0.562063  0.815577  0.053691  0.202961
    C   C140  0.532012  0.828351  0.084477  -0.218498
    C   C141  0.564703  0.852413  0.112098  -0.037587
    C   C142  0.627234  0.864502  0.108794  0.073614
    C   C143  0.656863  0.853380  0.077729  -0.144667
    C   C144  0.624354  0.828713  0.050229  -0.118014
    C   C145  0.815578  0.437940  0.053691  0.202737
    C   C146  0.445272  0.992304  0.121790  0.024892
    C   C147  0.828354  0.467991  0.084477  -0.218366
    C   C148  0.852416  0.435301  0.112098  -0.037614
    C   C149  0.864502  0.372769  0.108794  0.073594
    C   C150  0.853378  0.343139  0.077730  -0.144689
    C   C151  0.828711  0.375648  0.050230  -0.118098
    C   C152  0.437939  0.184421  0.053691  0.202600
    C   C153  0.467989  0.171648  0.084477  -0.218244
    C   C154  0.435298  0.147585  0.112098  -0.037678
    C   C155  0.372767  0.135496  0.108794  0.073757
    C   C156  0.343138  0.146619  0.077729  -0.144817
    C   C157  0.992306  0.554730  0.121790  0.024682
    C   C158  0.375648  0.171285  0.050229  -0.117839
    C   C159  0.813814  0.938083  0.445726  0.328104
    C   C160  0.828722  0.876265  0.449439  -0.232710
    C   C161  0.853979  0.843941  0.422017  -0.126234
    C   C162  0.864241  0.873420  0.390782  0.074833
    C   C163  0.849941  0.935363  0.387153  -0.116090
    C   C164  0.824534  0.967525  0.414565  -0.192868
    C   C165  0.061918  0.813814  0.445726  0.328149
    C   C166  0.123736  0.828718  0.449438  -0.232650
    C   C167  0.156060  0.853976  0.422015  -0.126409
    C   C168  0.054730  0.492307  0.378211  0.024719
    C   C169  0.126579  0.864241  0.390782  0.075062
    C   C170  0.064634  0.849945  0.387154  -0.116417
    C   C171  0.032473  0.824538  0.414567  -0.192738
    C   C172  0.186185  0.061916  0.445726  0.328024
    C   C173  0.171277  0.123734  0.449438  -0.232533
    C   C174  0.146020  0.156057  0.422015  -0.126439
    C   C175  0.135757  0.126576  0.390781  0.075066
    C   C176  0.150056  0.064633  0.387154  -0.116425
    C   C177  0.175463  0.032472  0.414566  -0.192684
    C   C178  0.938084  0.186185  0.445726  0.328068
    C   C179  0.507692  0.054730  0.378211  0.024795
    C   C180  0.876267  0.171274  0.449439  -0.232681
    C   C181  0.843943  0.146016  0.422016  -0.126287
    C   C182  0.873422  0.135757  0.390782  0.074872
    C   C183  0.935365  0.150060  0.387153  -0.116108
    C   C184  0.967526  0.175467  0.414565  -0.192868
    C   C185  0.813817  0.061914  0.554272  0.328301
    C   C186  0.828751  0.123724  0.550553  -0.232676
    C   C187  0.854008  0.156051  0.577975  -0.126027
    C   C188  0.864246  0.126581  0.609214  0.074975
    C   C189  0.849922  0.064644  0.612849  -0.116460
    C   C190  0.945273  0.507694  0.378211  0.024746
    C   C191  0.824515  0.032480  0.585438  -0.192684
    C   C192  0.061913  0.186182  0.554273  0.328751
    C   C193  0.123722  0.171244  0.550553  -0.232791
    C   C194  0.156048  0.145986  0.577974  -0.125846
    C   C195  0.126579  0.135752  0.609215  0.075109
    C   C196  0.064644  0.150081  0.612850  -0.116603
    C   C197  0.032480  0.175488  0.585439  -0.192679
    C   C198  0.186183  0.938087  0.554273  0.329416
    C   C199  0.171243  0.876279  0.550552  -0.233210
    C   C200  0.145985  0.843951  0.577973  -0.125491
    C   C201  0.492305  0.945272  0.378211  0.024714
    C   C202  0.135754  0.873418  0.609214  0.074532
    C   C203  0.150084  0.935353  0.612851  -0.116032
    C   C204  0.175491  0.967518  0.585440  -0.193008
    C   C205  0.938086  0.813816  0.554273  0.328590
    C   C206  0.876276  0.828752  0.550552  -0.232885
    C   C207  0.843949  0.854009  0.577974  -0.125897
    C   C208  0.873417  0.864245  0.609214  0.074848
    C   C209  0.935353  0.849919  0.612850  -0.116414
    C   C210  0.967518  0.824512  0.585439  -0.192539
    C   C211  0.313814  0.438083  0.945726  0.328301
    C   C212  0.054729  0.507695  0.621791  0.024666
    C   C213  0.328725  0.376267  0.949440  -0.232810
    C   C214  0.353982  0.343941  0.922018  -0.126253
    C   C215  0.364241  0.373419  0.890783  0.074823
    C   C216  0.349938  0.435362  0.887153  -0.116122
    C   C217  0.324532  0.467524  0.914565  -0.192789
    C   C218  0.561917  0.313815  0.945727  0.327948
    C   C219  0.623734  0.328723  0.949439  -0.232626
    C   C220  0.656058  0.353980  0.922016  -0.126374
    C   C221  0.626579  0.364242  0.890782  0.074948
    C   C222  0.564635  0.349942  0.887154  -0.116238
    C   C223  0.382385  0.000004  0.500001  0.797561
    C   C224  0.507697  0.945273  0.621790  0.024638
    C   C225  0.532474  0.324535  0.914566  -0.192636
    C   C226  0.686184  0.561916  0.945726  0.328021
    C   C227  0.671272  0.623732  0.949439  -0.232528
    C   C228  0.646014  0.656056  0.922017  -0.126360
    C   C229  0.635756  0.626577  0.890782  0.074871
    C   C230  0.650060  0.564634  0.887153  -0.116135
    C   C231  0.675467  0.532473  0.914565  -0.192811
    C   C232  0.438084  0.686185  0.945726  0.328015
    C   C233  0.376269  0.671269  0.949441  -0.232703
    C   C234  0.343944  0.646012  0.922018  -0.126307
    C   C235  0.945272  0.492304  0.621790  0.024615
    C   C236  0.373421  0.635757  0.890782  0.074900
    C   C237  0.435363  0.650064  0.887152  -0.116183
    C   C238  0.467525  0.675471  0.914564  -0.192699
    C   C239  0.313816  0.561915  0.054273  0.328004
    C   C240  0.328746  0.623726  0.050554  -0.232664
    C   C241  0.354003  0.656052  0.077976  -0.125971
    C   C242  0.364245  0.626581  0.109215  0.074837
    C   C243  0.349925  0.564643  0.112849  -0.116335
    C   C244  0.324518  0.532480  0.085437  -0.192442
    C   C245  0.561914  0.686183  0.054273  0.327717
    C   C246  0.492306  0.054731  0.621790  0.024698
    C   C247  0.623724  0.671249  0.050554  -0.232705
    C   C248  0.656050  0.645991  0.077976  -0.126199
    C   C249  0.626579  0.635753  0.109215  0.075270
    C   C250  0.564642  0.650077  0.112850  -0.116676
    C   C251  0.532479  0.675484  0.085438  -0.192104
    C   C252  0.686183  0.438087  0.054273  0.328775
    C   C253  0.671246  0.376278  0.050553  -0.232949
    C   C254  0.645989  0.343950  0.077975  -0.125788
    C   C255  0.635754  0.373419  0.109215  0.075148
    C   C256  0.650081  0.435355  0.112850  -0.116722
    C   C257  0.554726  0.992033  0.842460  -0.270229
    C   C258  0.675488  0.467519  0.085440  -0.192581
    C   C259  0.438085  0.313816  0.054273  0.328045
    C   C260  0.376275  0.328748  0.050553  -0.232768
    C   C261  0.343948  0.354006  0.077975  -0.125856
    C   C262  0.373417  0.364244  0.109214  0.074770
    C   C263  0.435354  0.349921  0.112849  -0.116441
    C   C264  0.467518  0.324514  0.085439  -0.192290
    C   C265  0.007968  0.554724  0.842460  -0.270195
    C   C266  0.445278  0.007970  0.842460  -0.270168
    C   C267  0.992031  0.445277  0.842460  -0.270140
    C   C268  0.554724  0.007969  0.157542  -0.270236
    C   C269  0.007971  0.445278  0.157542  -0.270112
    C   C270  0.445277  0.992029  0.157542  -0.270279
    C   C271  0.999998  0.382384  0.500001  0.797221
    C   C272  0.992031  0.554725  0.157542  -0.270143
    C   C273  0.054725  0.492033  0.342460  -0.270188
    C   C274  0.507967  0.054724  0.342460  -0.270223
    C   C275  0.945278  0.507970  0.342460  -0.270180
    C   C276  0.492030  0.945277  0.342460  -0.270181
    C   C277  0.054724  0.507970  0.657542  -0.270102
    C   C278  0.507972  0.945278  0.657542  -0.270080
    C   C279  0.945276  0.492029  0.657542  -0.270096
    C   C280  0.492032  0.054726  0.657542  -0.270134
    C   C281  0.500002  0.000002  0.824266  0.229370
    C   C282  0.117615  0.499999  0.000001  0.797377
    C   C283  0.999999  0.500001  0.824266  0.229419
    C   C284  0.500000  0.999999  0.175736  0.229427
    C   C285  0.000002  0.500002  0.175736  0.229293
    C   C286  0.000002  0.500001  0.324266  0.229486
    C   C287  0.499999  0.000000  0.324266  0.229493
    C   C288  0.000000  0.500000  0.675736  0.229258
    C   C289  0.500002  0.000002  0.675736  0.229288
    C   C290  0.500002  0.000001  0.896208  -0.008968
    C   C291  0.999999  0.500001  0.896208  -0.008620
    C   C292  0.500001  0.999999  0.103794  -0.008723
    C   C293  0.500003  0.117615  0.000001  0.797359
    C   C294  0.000001  0.500002  0.103794  -0.008454
    C   C295  0.000001  0.500001  0.396208  -0.008716
    C   C296  0.499999  0.000001  0.396208  -0.008726
    C   C297  0.000000  0.499999  0.603794  -0.008393
    C   C298  0.500001  0.000002  0.603794  -0.008513
    C   C299  0.460997  0.039143  0.767881  -0.093178
    C   C300  0.960858  0.460995  0.767881  -0.093199
    C   C301  0.539007  0.960861  0.767881  -0.093234
    C   C302  0.039140  0.539005  0.767881  -0.093215
    C   C303  0.460996  0.960858  0.232121  -0.093257
    C   C304  0.882384  0.500003  0.000001  0.797305
    C   C305  0.960860  0.539006  0.232121  -0.093293
    C   C306  0.539004  0.039142  0.232121  -0.093305
    C   C307  0.039144  0.460997  0.232121  -0.093298
    C   C308  0.960996  0.539142  0.267881  -0.093210
    C   C309  0.460858  0.960995  0.267881  -0.093217
    C   C310  0.039007  0.460861  0.267881  -0.093205
    C   C311  0.539140  0.039005  0.267881  -0.093217
    C   C312  0.960995  0.460858  0.732121  -0.093297
    C   C313  0.460860  0.039006  0.732121  -0.093317
    C   C314  0.039004  0.539142  0.732121  -0.093308
    C   C315  0.499999  0.882384  0.000001  0.797366
    C   C316  0.539144  0.960998  0.732121  -0.093284
    C   C317  0.500002  0.000002  0.713912  -0.040485
    C   C318  0.000000  0.500000  0.713912  -0.040464
    C   C319  0.499999  0.000000  0.286090  -0.040610
    C   C320  0.000002  0.500001  0.286090  -0.040618
    C   C321  0.000002  0.500002  0.213912  -0.040478
    C   C322  0.500000  0.999999  0.213912  -0.040514
    C   C323  0.999999  0.500000  0.786090  -0.040588
    C   C324  0.500002  0.000002  0.786090  -0.040554
    C   C325  0.717522  0.970286  0.473937  0.058148
    C   C326  0.500001  0.000002  0.565898  0.530332
    C   C327  0.029716  0.717522  0.473937  0.058372
    C   C328  0.282477  0.029716  0.473937  0.058298
    C   C329  0.970286  0.282477  0.473937  0.058074
    C   C330  0.717523  0.029710  0.526064  0.058255
    C   C331  0.029709  0.282476  0.526064  0.058346
    C   C332  0.282477  0.970293  0.526065  0.058957
    C   C333  0.970292  0.717523  0.526064  0.058781
    C   C334  0.217522  0.470287  0.973937  0.058338
    C   C335  0.529715  0.217522  0.973937  0.058144
    C   C336  0.782477  0.529715  0.973937  0.058074
    Cl  Cl1   0.607250  0.830555  0.355767  -0.109703
    Cl  Cl2   0.669448  0.107252  0.855767  -0.109726
    Cl  Cl3   0.892747  0.669446  0.855767  -0.109680
    Cl  Cl4   0.330557  0.892748  0.855766  -0.109697
    Cl  Cl5   0.107255  0.669445  0.144234  -0.109686
    Cl  Cl6   0.669443  0.892744  0.144234  -0.109672
    Cl  Cl7   0.892745  0.330560  0.144235  -0.109671
    Cl  Cl8   0.330558  0.107254  0.144234  -0.109682
    Cl  Cl9   0.893569  0.831856  0.355360  -0.101499
    Cl  Cl10  0.168142  0.893569  0.355360  -0.101523
    Cl  Cl11  0.106428  0.168139  0.355359  -0.101516
    Cl  Cl12  0.169448  0.607251  0.355767  -0.109712
    Cl  Cl13  0.831859  0.106429  0.355360  -0.101514
    Cl  Cl14  0.893573  0.168148  0.644635  -0.101556
    Cl  Cl15  0.168147  0.106425  0.644635  -0.101606
    Cl  Cl16  0.106427  0.831849  0.644634  -0.101539
    Cl  Cl17  0.831848  0.893571  0.644634  -0.101547
    Cl  Cl18  0.393569  0.331855  0.855361  -0.101502
    Cl  Cl19  0.668142  0.393570  0.855360  -0.101504
    Cl  Cl20  0.606428  0.668139  0.855360  -0.101505
    Cl  Cl21  0.331857  0.606429  0.855361  -0.101505
    Cl  Cl22  0.393572  0.668148  0.144636  -0.101521
    Cl  Cl23  0.392748  0.169447  0.355767  -0.109666
    Cl  Cl24  0.668145  0.606426  0.144636  -0.101612
    Cl  Cl25  0.606427  0.331851  0.144635  -0.101630
    Cl  Cl26  0.331849  0.393571  0.144635  -0.101528
    Cl  Cl27  0.830557  0.392749  0.355766  -0.109674
    Cl  Cl28  0.607256  0.169445  0.644234  -0.109657
    Cl  Cl29  0.169442  0.392743  0.644235  -0.109663
    Cl  Cl30  0.392744  0.830560  0.644235  -0.109646
    Cl  Cl31  0.830558  0.607255  0.644234  -0.109674
    Cl  Cl32  0.107250  0.330555  0.855767  -0.109722
    Cu  Cu1   0.500001  0.060812  0.500001  0.919451
    Cu  Cu2   0.999999  0.999999  0.533820  0.828153
    Cu  Cu3   0.499999  0.499999  0.966179  0.827990
    Cu  Cu4   0.499999  0.500000  0.033820  0.828094
    Cu  Cu5   0.939191  0.500001  0.500001  0.919545
    Cu  Cu6   0.499998  0.939191  0.500001  0.919501
    Cu  Cu7   0.060811  0.499998  0.500001  0.919424
    Cu  Cu8   0.000001  0.560812  0.000001  0.919586
    Cu  Cu9   0.439191  0.000001  0.000001  0.919659
    Cu  Cu10  0.999999  0.439191  0.000001  0.919483
    Cu  Cu11  0.560812  0.999999  0.000001  0.919513
    Cu  Cu12  0.000000  0.999999  0.466179  0.828030
    H   H1    0.598026  0.986110  0.891906  0.066371
    H   H2    0.513889  0.098025  0.391906  0.066414
    H   H3    0.182044  0.648044  0.026255  0.098768
    H   H4    0.483342  0.817445  0.087328  0.095891
    H   H5    0.541461  0.861124  0.136470  0.087145
    H   H6    0.705910  0.862692  0.075183  0.113834
    H   H7    0.648045  0.817950  0.026256  0.098765
    H   H8    0.817450  0.516662  0.087327  0.095857
    H   H9    0.861128  0.458543  0.136469  0.087170
    H   H10   0.862688  0.294091  0.075185  0.113857
    H   H11   0.817946  0.351957  0.026257  0.098809
    H   H12   0.516659  0.182553  0.087328  0.095853
    H   H13   0.901977  0.513891  0.391906  0.066420
    H   H14   0.458541  0.138875  0.136470  0.087138
    H   H15   0.294091  0.137307  0.075183  0.113854
    H   H16   0.351957  0.182048  0.026256  0.098749
    H   H17   0.818584  0.852679  0.473436  0.127654
    H   H18   0.864740  0.795228  0.424835  0.108795
    H   H19   0.857525  0.958389  0.362609  0.110737
    H   H20   0.811425  0.015460  0.411494  0.147617
    H   H21   0.147325  0.818578  0.473434  0.127672
    H   H22   0.204774  0.864734  0.424832  0.108826
    H   H23   0.041607  0.857532  0.362611  0.110813
    H   H24   0.486108  0.901977  0.391907  0.066422
    H   H25   0.984537  0.811431  0.411496  0.147627
    H   H26   0.181416  0.147322  0.473434  0.127632
    H   H27   0.135259  0.204771  0.424832  0.108828
    H   H28   0.142471  0.041606  0.362610  0.110810
    H   H29   0.188572  0.984537  0.411496  0.147596
    H   H30   0.852681  0.181409  0.473436  0.127627
    H   H31   0.795231  0.135253  0.424835  0.108840
    H   H32   0.958390  0.142478  0.362608  0.110743
    H   H33   0.015461  0.188579  0.411494  0.147609
    H   H34   0.818633  0.147304  0.526552  0.127568
    H   H35   0.098024  0.513893  0.608095  0.066395
    H   H36   0.864788  0.204759  0.575152  0.108694
    H   H37   0.857487  0.041626  0.637398  0.110842
    H   H38   0.811386  0.984552  0.588514  0.147568
    H   H39   0.147301  0.181357  0.526551  0.127533
    H   H40   0.204755  0.135202  0.575151  0.108602
    H   H41   0.041626  0.142519  0.637399  0.110862
    H   H42   0.984552  0.188620  0.588516  0.147527
    H   H43   0.181355  0.852702  0.526549  0.127575
    H   H44   0.135201  0.795245  0.575148  0.108583
    H   H45   0.142524  0.958369  0.637400  0.110746
    H   H46   0.513895  0.901978  0.608095  0.066424
    H   H47   0.188625  0.015445  0.588517  0.147509
    H   H48   0.852698  0.818636  0.526550  0.127598
    H   H49   0.795241  0.864790  0.575150  0.108668
    H   H50   0.958370  0.857482  0.637399  0.110849
    H   H51   0.015446  0.811382  0.588515  0.147476
    H   H52   0.318590  0.352681  0.973437  0.127655
    H   H53   0.364745  0.295229  0.924837  0.108850
    H   H54   0.357520  0.458386  0.862608  0.110741
    H   H55   0.311420  0.515459  0.911493  0.147565
    H   H56   0.647322  0.318585  0.973435  0.127655
    H   H57   0.901976  0.486105  0.608095  0.066429
    H   H58   0.704772  0.364741  0.924834  0.108833
    H   H59   0.541609  0.357526  0.862610  0.110738
    H   H60   0.484539  0.311426  0.911495  0.147573
    H   H61   0.681406  0.647319  0.973436  0.127559
    H   H62   0.635250  0.704768  0.924835  0.108856
    H   H63   0.642479  0.541609  0.862608  0.110744
    H   H64   0.688579  0.484539  0.911494  0.147604
    H   H65   0.352685  0.681402  0.973438  0.127642
    H   H66   0.295233  0.635246  0.924837  0.108853
    H   H67   0.458387  0.642485  0.862607  0.110749
    H   H68   0.486107  0.098026  0.608096  0.066411
    H   H69   0.515458  0.688586  0.911492  0.147568
    H   H70   0.318625  0.647307  0.026554  0.127587
    H   H71   0.364780  0.704761  0.075154  0.108691
    H   H72   0.357494  0.541624  0.137396  0.110780
    H   H73   0.311393  0.484550  0.088513  0.147494
    H   H74   0.647304  0.681366  0.026553  0.127664
    H   H75   0.704758  0.635211  0.075153  0.108761
    H   H76   0.541623  0.642511  0.137398  0.110824
    H   H77   0.484550  0.688612  0.088514  0.147417
    H   H78   0.681362  0.352699  0.026551  0.127570
    H   H79   0.598417  0.987054  0.829038  0.146521
    H   H80   0.635207  0.295243  0.075151  0.108619
    H   H81   0.642518  0.458372  0.137399  0.110913
    H   H82   0.688619  0.515447  0.088516  0.147461
    H   H83   0.352696  0.318630  0.026552  0.127589
    H   H84   0.295240  0.364784  0.075151  0.108667
    H   H85   0.458372  0.357487  0.137398  0.110850
    H   H86   0.515447  0.311386  0.088514  0.147381
    H   H87   0.012947  0.598416  0.829038  0.146501
    H   H88   0.401587  0.012949  0.829038  0.146482
    H   H89   0.013890  0.598025  0.891906  0.066402
    H   H90   0.987051  0.401586  0.829038  0.146502
    H   H91   0.598415  0.012949  0.170964  0.146511
    H   H92   0.012952  0.401587  0.170964  0.146493
    H   H93   0.401586  0.987049  0.170964  0.146505
    H   H94   0.987051  0.598416  0.170964  0.146503
    H   H95   0.098417  0.487054  0.329038  0.146506
    H   H96   0.512946  0.098416  0.329038  0.146498
    H   H97   0.901586  0.512949  0.329038  0.146491
    H   H98   0.487051  0.901585  0.329038  0.146499
    H   H99   0.098415  0.512950  0.670964  0.146498
    H   H100  0.401978  0.013892  0.891906  0.066378
    H   H101  0.512952  0.901587  0.670964  0.146478
    H   H102  0.901585  0.487049  0.670964  0.146494
    H   H103  0.487051  0.098417  0.670964  0.146501
    H   H104  0.430802  0.071137  0.781293  0.096102
    H   H105  0.928864  0.430800  0.781293  0.096108
    H   H106  0.569202  0.928866  0.781293  0.096111
    H   H107  0.071135  0.569200  0.781293  0.096116
    H   H108  0.430802  0.928862  0.218708  0.096114
    H   H109  0.928864  0.569199  0.218708  0.096127
    H   H110  0.569198  0.071137  0.218708  0.096141
    H   H111  0.986108  0.401977  0.891907  0.066438
    H   H112  0.071139  0.430804  0.218708  0.096136
    H   H113  0.930802  0.571137  0.281293  0.096122
    H   H114  0.428864  0.930800  0.281293  0.096117
    H   H115  0.069201  0.428866  0.281293  0.096108
    H   H116  0.571135  0.069200  0.281293  0.096122
    H   H117  0.930802  0.428863  0.718708  0.096131
    H   H118  0.428865  0.069200  0.718708  0.096130
    H   H119  0.069198  0.571137  0.718708  0.096134
    H   H120  0.571139  0.930804  0.718708  0.096138
    H   H121  0.682576  0.016651  0.412668  0.095780
    H   H122  0.598025  0.013893  0.108096  0.066380
    H   H123  0.638894  0.958533  0.363527  0.087060
    H   H124  0.637278  0.794095  0.424822  0.113871
    H   H125  0.682021  0.851960  0.473749  0.098695
    H   H126  0.983353  0.682581  0.412667  0.095817
    H   H127  0.041471  0.638899  0.363526  0.087027
    H   H128  0.205906  0.637273  0.424824  0.113806
    H   H129  0.148041  0.682016  0.473751  0.098699
    H   H130  0.317420  0.983352  0.412668  0.095807
    H   H131  0.361103  0.041469  0.363527  0.087033
    H   H132  0.362722  0.205907  0.424823  0.113832
    H   H133  0.013895  0.401978  0.108095  0.066414
    H   H134  0.317980  0.148042  0.473750  0.098705
    H   H135  0.016652  0.317425  0.412669  0.095804
    H   H136  0.958535  0.361108  0.363527  0.087060
    H   H137  0.794095  0.362718  0.424821  0.113828
    H   H138  0.851959  0.317975  0.473748  0.098723
    H   H139  0.682554  0.983342  0.587328  0.095863
    H   H140  0.638876  0.041462  0.636470  0.087096
    H   H141  0.637308  0.205911  0.575182  0.113817
    H   H142  0.682049  0.148045  0.526255  0.098795
    H   H143  0.983339  0.317450  0.587327  0.095884
    H   H144  0.401976  0.986105  0.108095  0.066398
    H   H145  0.041458  0.361128  0.636469  0.087176
    H   H146  0.205910  0.362686  0.575184  0.113852
    H   H147  0.148045  0.317945  0.526257  0.098830
    H   H148  0.317454  0.016663  0.587326  0.095952
    H   H149  0.361131  0.958545  0.636469  0.087194
    H   H150  0.362684  0.794091  0.575185  0.113767
    H   H151  0.317943  0.851956  0.526258  0.098813
    H   H152  0.016660  0.682551  0.587327  0.095954
    H   H153  0.958541  0.638873  0.636469  0.087178
    H   H154  0.794091  0.637310  0.575183  0.113808
    H   H155  0.986107  0.598026  0.108096  0.066413
    H   H156  0.851957  0.682051  0.526256  0.098767
    H   H157  0.182574  0.516652  0.912669  0.095818
    H   H158  0.138892  0.458534  0.863527  0.087163
    H   H159  0.137281  0.294094  0.924822  0.113875
    H   H160  0.182024  0.351960  0.973749  0.098662
    H   H161  0.483352  0.182578  0.912668  0.095780
    H   H162  0.541470  0.138896  0.863527  0.087055
    H   H163  0.705907  0.137278  0.924824  0.113888
    H   H164  0.648042  0.182020  0.973750  0.098669
    H   H165  0.817425  0.483350  0.912669  0.095816
    H   H166  0.098026  0.486110  0.391906  0.066425
    H   H167  0.861107  0.541467  0.863527  0.087082
    H   H168  0.862716  0.705907  0.924822  0.113831
    H   H169  0.817974  0.648043  0.973749  0.098728
    H   H170  0.516654  0.817430  0.912670  0.095807
    H   H171  0.458537  0.861111  0.863528  0.087172
    H   H172  0.294094  0.862713  0.924820  0.113819
    H   H173  0.351959  0.817970  0.973747  0.098714
    H   H174  0.182558  0.483344  0.087329  0.095890
    H   H175  0.138879  0.541463  0.136470  0.087148
    H   H176  0.137303  0.705910  0.075181  0.113834
    O   O1    0.588633  0.051467  0.490984  -0.630562
    O   O2    0.448535  0.088633  0.990985  -0.630635
    O   O3    0.911366  0.448535  0.990985  -0.630622
    O   O4    0.551468  0.911366  0.990985  -0.630679
    O   O5    0.088631  0.448532  0.009017  -0.630648
    O   O6    0.448532  0.911368  0.009017  -0.630623
    O   O7    0.911368  0.551471  0.009017  -0.630609
    O   O8    0.551470  0.088631  0.009017  -0.630665
    O   O9    0.516167  0.051446  0.549673  -0.511125
    O   O10   0.948556  0.516166  0.549673  -0.511029
    O   O11   0.483833  0.948558  0.549674  -0.510982
    O   O12   0.948535  0.588633  0.490985  -0.630587
    O   O13   0.051445  0.483832  0.549674  -0.511013
    O   O14   0.516164  0.948556  0.450329  -0.511052
    O   O15   0.948556  0.483835  0.450328  -0.511055
    O   O16   0.483834  0.051446  0.450328  -0.511133
    O   O17   0.051446  0.516165  0.450329  -0.511160
    O   O18   0.016167  0.551446  0.049673  -0.511089
    O   O19   0.448557  0.016166  0.049673  -0.511111
    O   O20   0.983833  0.448557  0.049674  -0.511000
    O   O21   0.551445  0.983832  0.049673  -0.511128
    O   O22   0.016164  0.448556  0.950328  -0.511119
    O   O23   0.411366  0.948535  0.490985  -0.630596
    O   O24   0.448557  0.983835  0.950328  -0.511156
    O   O25   0.983834  0.551446  0.950328  -0.511116
    O   O26   0.551446  0.016165  0.950329  -0.511176
    O   O27   0.017328  0.088622  0.471459  -0.481518
    O   O28   0.911377  0.017328  0.471458  -0.481537
    O   O29   0.982671  0.911377  0.471459  -0.481638
    O   O30   0.088622  0.982671  0.471459  -0.481592
    O   O31   0.017328  0.911377  0.528540  -0.482003
    O   O32   0.911377  0.982671  0.528540  -0.481709
    O   O33   0.982671  0.088622  0.528540  -0.481738
    O   O34   0.051467  0.411366  0.490985  -0.630568
    O   O35   0.088622  0.017328  0.528540  -0.481989
    O   O36   0.517328  0.588622  0.971459  -0.481663
    O   O37   0.411377  0.517328  0.971459  -0.481613
    O   O38   0.482671  0.411377  0.971459  -0.481707
    O   O39   0.588622  0.482671  0.971459  -0.481561
    O   O40   0.517328  0.411377  0.028540  -0.482003
    O   O41   0.411377  0.482671  0.028540  -0.481730
    O   O42   0.482671  0.588622  0.028540  -0.481855
    O   O43   0.588622  0.517328  0.028540  -0.481754
    O   O44   0.588631  0.948532  0.509017  -0.630600
    O   O45   0.948531  0.411368  0.509017  -0.630573
    O   O46   0.411368  0.051471  0.509017  -0.630643
    O   O47   0.051471  0.588631  0.509017  -0.630660
    O   O48   0.088633  0.551468  0.990984  -0.630630
