# Generated by REPEAT Assigner based on pymatgen
data_DB0-m2_o1_o3_f0_nbo.sym.53_sqe
_audit_creation_date              2022-05-24
_audit_creation_method            REPEAT_Assigner
_cell_length_a                    21.497356
_cell_length_b                    21.496785
_cell_length_c                    38.615460
_cell_angle_alpha                 90.000000
_cell_angle_beta                  90.000000
_cell_angle_gamma                 90.000000
_cell_volume                      17845.132142
_symmetry_space_group_name_H-M    P1
_symmetry_Int_Tables_number       1
loop_
    _symmetry_equiv_pos_site_id
    _symmetry_equiv_pos_as_xyz
    1  x,y,z
loop_
    _atom_site_type_symbol
    _atom_site_label
    _atom_site_fract_x
    _atom_site_fract_y
    _atom_site_fract_z
    _atom_type_partial_charge
    C   C1    0.617640  0.000008  0.499999  0.778920
    C   C2    0.000560  0.500201  0.566161  0.795770
    C   C3    0.471145  0.782487  0.973926  -0.296584
    C   C4    0.217280  0.527320  0.026835  -0.286935
    C   C5    0.529188  0.782396  0.026486  -0.298903
    C   C6    0.782198  0.470228  0.026021  -0.301532
    C   C7    0.471161  0.217511  0.026080  -0.296089
    C   C8    0.781588  0.973672  0.472639  0.353945
    C   C9    0.027249  0.781874  0.472693  0.357656
    C   C10   0.217927  0.028646  0.473375  0.361592
    C   C11   0.972656  0.218224  0.473180  0.356078
    C   C12   0.781590  0.026340  0.527357  0.353957
    C   C13   0.499574  0.999055  0.433841  0.798729
    C   C14   0.027233  0.218130  0.527312  0.357446
    C   C15   0.217928  0.971366  0.526630  0.361303
    C   C16   0.972642  0.781780  0.526815  0.357239
    C   C17   0.281568  0.474003  0.972541  0.348822
    C   C18   0.527528  0.281879  0.972782  0.357589
    C   C19   0.717930  0.528335  0.973269  0.362542
    C   C20   0.472295  0.718206  0.973296  0.354828
    C   C21   0.281566  0.525987  0.027464  0.350006
    C   C22   0.527545  0.718119  0.027213  0.358823
    C   C23   0.717929  0.471655  0.026726  0.362671
    C   C24   0.000549  0.499804  0.433839  0.795866
    C   C25   0.472311  0.281793  0.026709  0.354296
    C   C26   0.813708  0.000005  0.499998  -0.418559
    C   C27   0.999886  0.813927  0.499756  -0.409373
    C   C28   0.185852  0.000005  0.500003  -0.402278
    C   C29   0.999885  0.186077  0.500244  -0.408862
    C   C30   0.313692  0.499996  0.000002  -0.417186
    C   C31   0.499864  0.313930  0.999747  -0.405698
    C   C32   0.685848  0.499996  0.999998  -0.406435
    C   C33   0.499865  0.686068  0.000253  -0.406090
    C   C34   0.685391  0.000008  0.499998  -0.014688
    C   C35   0.999563  0.500972  0.066158  0.797568
    C   C36   0.000419  0.685645  0.499858  -0.008891
    C   C37   0.314098  0.000008  0.500003  -0.009160
    C   C38   0.000419  0.314359  0.500143  -0.009412
    C   C39   0.185372  0.499993  0.000002  -0.017319
    C   C40   0.500378  0.185651  0.999850  -0.011017
    C   C41   0.814096  0.499993  0.999998  -0.005554
    C   C42   0.500379  0.814347  0.000150  -0.010000
    C   C43   0.999841  0.118082  0.500177  0.823635
    C   C44   0.881729  0.000002  0.499998  0.842183
    C   C45   0.999842  0.881921  0.499823  0.823591
    C   C46   0.500506  0.000207  0.066163  0.795677
    C   C47   0.117886  0.000003  0.500002  0.802104
    C   C48   0.499831  0.618078  0.000184  0.817336
    C   C49   0.381718  0.499999  0.000002  0.847320
    C   C50   0.499831  0.381921  0.999816  0.817642
    C   C51   0.617879  0.499999  0.999998  0.809292
    C   C52   0.651679  0.049609  0.889761  -0.156163
    C   C53   0.582521  0.136400  0.886374  -0.268109
    C   C54   0.950939  0.649789  0.888609  -0.094393
    C   C55   0.862829  0.581765  0.886868  -0.282239
    C   C56   0.349221  0.951419  0.888996  -0.089189
    C   C57   0.999569  0.499015  0.933842  0.797820
    C   C58   0.417279  0.863344  0.886976  -0.273812
    C   C59   0.048872  0.347320  0.890232  -0.146932
    C   C60   0.135784  0.416250  0.886395  -0.250873
    C   C61   0.651658  0.950379  0.110249  -0.156334
    C   C62   0.582491  0.863594  0.113628  -0.268958
    C   C63   0.950933  0.350198  0.111390  -0.094253
    C   C64   0.862821  0.418219  0.113128  -0.281844
    C   C65   0.349201  0.048571  0.110997  -0.088307
    C   C66   0.417252  0.136651  0.113022  -0.272899
    C   C67   0.048864  0.652668  0.109769  -0.147060
    C   C68   0.500518  0.999791  0.933838  0.796467
    C   C69   0.135774  0.583735  0.113608  -0.251110
    C   C70   0.151728  0.549472  0.389789  -0.155703
    C   C71   0.082701  0.636358  0.386343  -0.264276
    C   C72   0.450798  0.149818  0.388596  -0.093762
    C   C73   0.362764  0.081692  0.386923  -0.285972
    C   C74   0.849218  0.451587  0.389033  -0.088282
    C   C75   0.917167  0.363433  0.386932  -0.267417
    C   C76   0.549024  0.847399  0.390179  -0.148302
    C   C77   0.635844  0.916458  0.386414  -0.256014
    C   C78   0.151747  0.450541  0.610203  -0.155584
    C   C79   0.544938  0.033654  0.876911  0.442609
    C   C80   0.082727  0.363650  0.613655  -0.264510
    C   C81   0.450803  0.850198  0.611406  -0.094026
    C   C82   0.362772  0.918328  0.613081  -0.285925
    C   C83   0.849236  0.548424  0.610974  -0.088810
    C   C84   0.917191  0.636574  0.613070  -0.267575
    C   C85   0.549031  0.152616  0.609820  -0.148520
    C   C86   0.635854  0.083560  0.613583  -0.255840
    C   C87   0.442247  0.139643  0.793541  -0.174039
    C   C88   0.357923  0.064738  0.789443  -0.177393
    C   C89   0.866640  0.443489  0.801737  -0.213679
    C   C90   0.964508  0.542256  0.876846  0.502543
    C   C91   0.943052  0.360461  0.795634  -0.235885
    C   C92   0.554841  0.867299  0.801624  -0.211324
    C   C93   0.638089  0.943537  0.795704  -0.232791
    C   C94   0.138792  0.556380  0.793477  -0.172638
    C   C95   0.063903  0.640758  0.789545  -0.179095
    C   C96   0.442218  0.860363  0.206464  -0.174086
    C   C97   0.357895  0.935269  0.210562  -0.177262
    C   C98   0.866619  0.556498  0.198259  -0.214191
    C   C99   0.943029  0.639529  0.204362  -0.236212
    C   C100  0.554814  0.132705  0.198373  -0.211027
    C   C101  0.456634  0.965066  0.876919  0.505949
    C   C102  0.638063  0.056467  0.204294  -0.232087
    C   C103  0.138771  0.443612  0.206526  -0.171608
    C   C104  0.063884  0.359233  0.210460  -0.178430
    C   C105  0.942260  0.639687  0.293546  -0.173218
    C   C106  0.857925  0.564795  0.289438  -0.176852
    C   C107  0.366595  0.943545  0.301741  -0.213378
    C   C108  0.443028  0.860532  0.295649  -0.235608
    C   C109  0.054833  0.367349  0.301630  -0.209507
    C   C110  0.138102  0.443561  0.295691  -0.232676
    C   C111  0.638751  0.056454  0.293461  -0.172192
    C   C112  0.000527  0.617905  0.499873  0.772442
    C   C113  0.033066  0.453930  0.876995  0.445368
    C   C114  0.563848  0.140821  0.289543  -0.177588
    C   C115  0.942286  0.360309  0.706450  -0.173460
    C   C116  0.857950  0.435201  0.710558  -0.177270
    C   C117  0.366617  0.056470  0.698264  -0.213430
    C   C118  0.443053  0.139480  0.704356  -0.235925
    C   C119  0.054856  0.632650  0.698374  -0.209564
    C   C120  0.138126  0.556437  0.704311  -0.232495
    C   C121  0.638773  0.943555  0.706536  -0.173165
    C   C122  0.563868  0.859190  0.710453  -0.178039
    C   C123  0.808755  0.878344  0.445654  -0.341260
    C   C124  0.544915  0.966342  0.123091  0.442032
    C   C125  0.801523  0.971610  0.411946  -0.144855
    C   C126  0.122865  0.808562  0.445800  -0.353921
    C   C127  0.029530  0.802419  0.412109  -0.146494
    C   C128  0.192280  0.125484  0.447482  -0.314009
    C   C129  0.196442  0.033026  0.412961  -0.139018
    C   C130  0.876395  0.191843  0.446959  -0.320360
    C   C131  0.968982  0.197654  0.412599  -0.139791
    C   C132  0.808762  0.121668  0.554339  -0.343136
    C   C133  0.801525  0.028405  0.588050  -0.145992
    C   C134  0.122839  0.191431  0.554212  -0.353988
    C   C135  0.964498  0.457731  0.123153  0.502148
    C   C136  0.029499  0.197596  0.587897  -0.145575
    C   C137  0.192286  0.874528  0.552526  -0.314046
    C   C138  0.196443  0.966990  0.587044  -0.138937
    C   C139  0.876370  0.808151  0.553029  -0.320794
    C   C140  0.968951  0.802359  0.587395  -0.139532
    C   C141  0.308891  0.378939  0.945329  -0.343379
    C   C142  0.301331  0.472412  0.911818  -0.144397
    C   C143  0.623384  0.308408  0.946095  -0.350710
    C   C144  0.530234  0.302594  0.912229  -0.143902
    C   C145  0.692154  0.624942  0.947160  -0.320364
    C   C146  0.456612  0.034931  0.123079  0.505434
    C   C147  0.696610  0.532278  0.912821  -0.136274
    C   C148  0.375782  0.691948  0.947313  -0.318732
    C   C149  0.468140  0.697468  0.912749  -0.140856
    C   C150  0.308883  0.621050  0.054679  -0.342954
    C   C151  0.301328  0.527574  0.088187  -0.144844
    C   C152  0.623413  0.691603  0.053892  -0.350479
    C   C153  0.530269  0.697391  0.087764  -0.143729
    C   C154  0.692147  0.375047  0.052832  -0.320074
    C   C155  0.696608  0.467707  0.087173  -0.136488
    C   C156  0.375809  0.308061  0.052702  -0.319704
    C   C157  0.033055  0.546058  0.123005  0.445173
    C   C158  0.468174  0.302520  0.087258  -0.140683
    C   C159  0.044980  0.533654  0.376910  0.444031
    C   C160  0.464470  0.042291  0.376854  0.502832
    C   C161  0.956629  0.465127  0.376917  0.506683
    C   C162  0.533086  0.954009  0.376990  0.446162
    C   C163  0.045000  0.466352  0.623088  0.443605
    C   C164  0.381833  0.000008  0.500002  0.763859
    C   C165  0.464481  0.957724  0.623148  0.502798
    C   C166  0.956649  0.534879  0.623084  0.506649
    C   C167  0.533098  0.046005  0.623010  0.446464
    C   C168  0.545279  0.032007  0.841137  -0.355795
    C   C169  0.964064  0.540756  0.841077  -0.489816
    C   C170  0.457863  0.964713  0.841138  -0.489895
    C   C171  0.031346  0.453330  0.841214  -0.360631
    C   C172  0.545254  0.967991  0.158866  -0.355309
    C   C173  0.964050  0.459232  0.158922  -0.487996
    C   C174  0.457837  0.035285  0.158861  -0.489402
    C   C175  0.000527  0.382100  0.500127  0.772514
    C   C176  0.031330  0.546659  0.158787  -0.359220
    C   C177  0.045312  0.532019  0.341136  -0.358885
    C   C178  0.464011  0.040796  0.341085  -0.488930
    C   C179  0.957849  0.464786  0.341136  -0.492037
    C   C180  0.531350  0.953413  0.341208  -0.359636
    C   C181  0.045335  0.467985  0.658863  -0.358679
    C   C182  0.464026  0.959218  0.658916  -0.489006
    C   C183  0.957872  0.535217  0.658865  -0.492187
    C   C184  0.531367  0.046600  0.658792  -0.359952
    C   C185  0.502997  0.996546  0.823395  0.230797
    C   C186  0.117624  0.499993  0.000001  0.779751
    C   C187  0.995872  0.495535  0.823406  0.235045
    C   C188  0.502971  0.003455  0.176605  0.231025
    C   C189  0.995855  0.504455  0.176594  0.232131
    C   C190  0.003002  0.496593  0.323394  0.235509
    C   C191  0.495839  0.995596  0.323407  0.234099
    C   C192  0.003025  0.503409  0.676606  0.234835
    C   C193  0.495857  0.004416  0.676594  0.234420
    C   C194  0.500727  0.999422  0.895373  -0.520605
    C   C195  0.998952  0.498326  0.895379  -0.520480
    C   C196  0.500708  0.000575  0.104627  -0.519674
    C   C197  0.500484  0.117907  0.999869  0.773149
    C   C198  0.998943  0.501662  0.104621  -0.520179
    C   C199  0.000750  0.499446  0.395373  -0.520967
    C   C200  0.498949  0.998378  0.395379  -0.521736
    C   C201  0.000768  0.500559  0.604627  -0.520674
    C   C202  0.498958  0.001637  0.604622  -0.521682
    C   C203  0.461292  0.037822  0.770009  0.113174
    C   C204  0.958009  0.458298  0.765836  -0.076360
    C   C205  0.540376  0.958873  0.765827  -0.087527
    C   C206  0.036900  0.537444  0.770020  0.122108
    C   C207  0.461265  0.962185  0.229993  0.114620
    C   C208  0.881828  0.499993  0.999998  0.762778
    C   C209  0.957986  0.541694  0.234162  -0.077505
    C   C210  0.540352  0.041134  0.234172  -0.085624
    C   C211  0.036879  0.462548  0.229981  0.122482
    C   C212  0.961295  0.537869  0.270008  0.113031
    C   C213  0.457961  0.958361  0.265840  -0.076620
    C   C214  0.040380  0.458919  0.265827  -0.085444
    C   C215  0.536852  0.037507  0.270017  0.124844
    C   C216  0.961319  0.462126  0.729990  0.111889
    C   C217  0.457985  0.041649  0.734163  -0.075730
    C   C218  0.040403  0.541076  0.734175  -0.085127
    C   C219  0.500484  0.882091  0.000132  0.772830
    C   C220  0.536875  0.962502  0.729982  0.127123
    C   C221  0.496465  0.003628  0.714385  -0.137470
    C   C222  0.002232  0.502752  0.714396  -0.126000
    C   C223  0.496443  0.996383  0.285616  -0.135946
    C   C224  0.002208  0.497245  0.285604  -0.126978
    C   C225  0.996469  0.503674  0.214385  -0.133512
    C   C226  0.502177  0.002808  0.214395  -0.127150
    C   C227  0.996489  0.496317  0.785615  -0.135023
    C   C228  0.502203  0.997197  0.785605  -0.125545
    C   C229  0.717302  0.972331  0.473276  -0.290930
    C   C230  0.499579  0.000961  0.566160  0.798598
    C   C231  0.028898  0.717598  0.473412  -0.298889
    C   C232  0.282198  0.030075  0.474086  -0.299867
    C   C233  0.971521  0.282504  0.473804  -0.296593
    C   C234  0.717303  0.027684  0.526720  -0.291105
    C   C235  0.028883  0.282406  0.526593  -0.298536
    C   C236  0.282199  0.969940  0.525919  -0.299572
    C   C237  0.971506  0.717500  0.526191  -0.297828
    C   C238  0.217282  0.472667  0.973170  -0.285993
    C   C239  0.529171  0.217602  0.973509  -0.297391
    C   C240  0.782200  0.529760  0.973974  -0.301492
    Cu  Cu1   0.499732  0.060916  0.499740  0.968787
    Cu  Cu2   0.999821  0.999845  0.533811  0.990442
    Cu  Cu3   0.499812  0.500163  0.966190  0.990768
    Cu  Cu4   0.499816  0.499836  0.033810  0.990873
    Cu  Cu5   0.939636  0.500002  0.500002  0.983124
    Cu  Cu6   0.499732  0.939100  0.500261  0.968709
    Cu  Cu7   0.061450  0.500002  0.499998  0.952520
    Cu  Cu8   0.999721  0.560899  0.999732  0.968671
    Cu  Cu9   0.439590  0.999999  0.999998  0.983684
    Cu  Cu10  0.999721  0.439088  0.000268  0.968759
    Cu  Cu11  0.561410  0.999999  0.000002  0.952561
    Cu  Cu12  0.999825  0.000159  0.466190  0.990679
    H   H1    0.578495  0.058861  0.826464  0.182356
    H   H2    0.438504  0.075124  0.326397  0.216291
    H   H3    0.574243  0.816289  0.408273  0.072820
    H   H4    0.557065  0.831261  0.363288  0.020600
    H   H5    0.650262  0.965567  0.390024  0.095767
    H   H6    0.645371  0.902004  0.359398  0.032723
    H   H7    0.663343  0.886333  0.403944  0.140431
    H   H8    0.153795  0.501053  0.604480  0.074542
    H   H9    0.183032  0.425511  0.592120  0.074823
    H   H10   0.167676  0.442279  0.637111  0.022484
    H   H11   0.033730  0.349128  0.609719  0.098579
    H   H12   0.096652  0.354063  0.640750  0.035006
    H   H13   0.923400  0.439346  0.326501  0.215487
    H   H14   0.113283  0.336268  0.596303  0.142355
    H   H15   0.493760  0.851116  0.627291  0.032099
    H   H16   0.461821  0.828676  0.586044  0.043366
    H   H17   0.414982  0.821770  0.624675  0.034840
    H   H18   0.347745  0.966762  0.607806  0.087815
    H   H19   0.352315  0.906663  0.640418  0.040805
    H   H20   0.336431  0.886135  0.596130  0.147774
    H   H21   0.850032  0.505492  0.626883  0.031532
    H   H22   0.828120  0.537320  0.585519  0.041907
    H   H23   0.820516  0.584189  0.624095  0.034068
    H   H24   0.558197  0.920114  0.326590  0.182894
    H   H25   0.965751  0.651626  0.608192  0.081974
    H   H26   0.904868  0.646886  0.640334  0.038243
    H   H27   0.885429  0.662997  0.595904  0.142498
    H   H28   0.498571  0.154667  0.603958  0.072731
    H   H29   0.574249  0.183727  0.591726  0.072921
    H   H30   0.557072  0.168754  0.636711  0.020677
    H   H31   0.650273  0.034451  0.609974  0.095684
    H   H32   0.645383  0.098016  0.640599  0.032677
    H   H33   0.663350  0.113685  0.596052  0.140403
    H   H34   0.483608  0.147511  0.776989  0.054879
    H   H35   0.078572  0.441154  0.673533  0.182357
    H   H36   0.454672  0.151331  0.820644  0.038880
    H   H37   0.403652  0.170180  0.785002  0.070344
    H   H38   0.349141  0.014720  0.784387  0.046291
    H   H39   0.336904  0.093064  0.768559  0.011430
    H   H40   0.335818  0.077700  0.814362  0.085139
    H   H41   0.857546  0.491468  0.792471  0.074379
    H   H42   0.878930  0.444598  0.829585  0.054934
    H   H43   0.823704  0.415492  0.798594  0.037446
    H   H44   0.993131  0.358571  0.788928  0.071410
    H   H45   0.919696  0.319237  0.784306  0.029509
    H   H46   0.438520  0.924889  0.673605  0.216237
    H   H47   0.937520  0.359152  0.824154  0.065844
    H   H48   0.506832  0.858441  0.792339  0.072518
    H   H49   0.553780  0.879402  0.829498  0.055325
    H   H50   0.582680  0.824282  0.798387  0.037258
    H   H51   0.640174  0.993622  0.789028  0.072346
    H   H52   0.679272  0.920055  0.784411  0.029030
    H   H53   0.639272  0.937958  0.824223  0.064199
    H   H54   0.146607  0.515127  0.776833  0.052359
    H   H55   0.150523  0.543769  0.820548  0.038854
    H   H56   0.169333  0.595016  0.785000  0.070911
    H   H57   0.923424  0.560657  0.673502  0.215554
    H   H58   0.013900  0.649573  0.784466  0.047582
    H   H59   0.092283  0.661884  0.768716  0.011679
    H   H60   0.076806  0.662738  0.814507  0.085437
    H   H61   0.483580  0.852496  0.223016  0.054844
    H   H62   0.454643  0.848673  0.179361  0.038932
    H   H63   0.403623  0.829826  0.215004  0.070426
    H   H64   0.349114  0.985287  0.215618  0.046279
    H   H65   0.336877  0.906944  0.231447  0.011439
    H   H66   0.335788  0.922306  0.185644  0.085120
    H   H67   0.857526  0.508520  0.207526  0.074521
    H   H68   0.558215  0.079899  0.673409  0.182983
    H   H69   0.878912  0.555387  0.170411  0.055037
    H   H70   0.823683  0.584495  0.201400  0.037634
    H   H71   0.993108  0.641420  0.211069  0.071498
    H   H72   0.919672  0.680753  0.215688  0.029590
    H   H73   0.937499  0.640835  0.175842  0.065955
    H   H74   0.506806  0.141563  0.207658  0.072386
    H   H75   0.553752  0.120599  0.170498  0.055123
    H   H76   0.582653  0.175721  0.201608  0.037240
    H   H77   0.640148  0.006382  0.210971  0.072079
    H   H78   0.679246  0.079950  0.215585  0.028841
    H   H79   0.691411  0.950755  0.452610  0.151656
    H   H80   0.639245  0.062044  0.175775  0.063982
    H   H81   0.146585  0.484867  0.223169  0.052070
    H   H82   0.150503  0.456221  0.179455  0.038672
    H   H83   0.169313  0.404978  0.215004  0.070749
    H   H84   0.013881  0.350418  0.215538  0.047471
    H   H85   0.092265  0.338109  0.231290  0.011363
    H   H86   0.076788  0.337251  0.185498  0.085438
    H   H87   0.983619  0.647554  0.276993  0.054744
    H   H88   0.954691  0.651364  0.320649  0.038415
    H   H89   0.903668  0.670234  0.285012  0.070178
    H   H90   0.051157  0.691733  0.452967  0.155926
    H   H91   0.849137  0.514782  0.284370  0.046200
    H   H92   0.836910  0.593138  0.268559  0.011303
    H   H93   0.835819  0.577742  0.314359  0.084952
    H   H94   0.357496  0.991519  0.292471  0.074396
    H   H95   0.378883  0.944662  0.329589  0.054824
    H   H96   0.323664  0.915540  0.298599  0.037713
    H   H97   0.493107  0.858651  0.288942  0.071428
    H   H98   0.419681  0.819297  0.284329  0.029573
    H   H99   0.437500  0.859238  0.324170  0.065900
    H   H100  0.006819  0.358499  0.292350  0.071878
    H   H101  0.308102  0.053313  0.453998  0.158343
    H   H102  0.053783  0.379461  0.329503  0.054350
    H   H103  0.082661  0.324326  0.298394  0.036668
    H   H104  0.140199  0.493644  0.289012  0.072408
    H   H105  0.179271  0.420064  0.284393  0.028727
    H   H106  0.139299  0.437986  0.324210  0.063965
    H   H107  0.646564  0.015200  0.276818  0.052383
    H   H108  0.650499  0.043850  0.320531  0.039075
    H   H109  0.669281  0.095094  0.284977  0.070900
    H   H110  0.513839  0.149628  0.284479  0.047354
    H   H111  0.592206  0.161950  0.268706  0.011279
    H   H112  0.938590  0.575101  0.826384  0.216491
    H   H113  0.949220  0.308432  0.453394  0.155987
    H   H114  0.576772  0.162801  0.314502  0.085364
    H   H115  0.983645  0.352442  0.723004  0.054795
    H   H116  0.954719  0.348635  0.679346  0.038452
    H   H117  0.903694  0.329762  0.714982  0.070192
    H   H118  0.849161  0.485213  0.715627  0.046290
    H   H119  0.836935  0.406855  0.731436  0.011395
    H   H120  0.835846  0.422255  0.685637  0.085009
    H   H121  0.357517  0.008495  0.707533  0.074445
    H   H122  0.378903  0.055355  0.670415  0.054818
    H   H123  0.323687  0.084476  0.701408  0.037675
    H   H124  0.691413  0.049262  0.547386  0.151801
    H   H125  0.493132  0.141360  0.711062  0.071531
    H   H126  0.419707  0.180715  0.715678  0.029603
    H   H127  0.437523  0.140777  0.675835  0.066004
    H   H128  0.006843  0.641499  0.707654  0.071912
    H   H129  0.053807  0.620540  0.670500  0.054509
    H   H130  0.082686  0.675672  0.701611  0.036644
    H   H131  0.140222  0.506353  0.710988  0.072328
    H   H132  0.179295  0.579933  0.715610  0.028757
    H   H133  0.139323  0.562016  0.675792  0.063980
    H   H134  0.646587  0.984809  0.723179  0.052534
    H   H135  0.051132  0.308271  0.547042  0.155887
    H   H136  0.650521  0.956160  0.679467  0.039339
    H   H137  0.669302  0.904914  0.715020  0.071184
    H   H138  0.513858  0.850383  0.715516  0.047443
    H   H139  0.592225  0.838058  0.731290  0.011439
    H   H140  0.576792  0.837211  0.685493  0.085424
    H   H141  0.821592  0.860484  0.471595  0.113736
    H   H142  0.840652  0.857883  0.426159  0.128097
    H   H143  0.760285  0.864373  0.439725  0.053572
    H   H144  0.769555  0.011792  0.414564  0.046698
    H   H145  0.780330  0.936223  0.394718  0.045857
    H   H146  0.308104  0.946704  0.546007  0.158195
    H   H147  0.845511  0.988254  0.400161  0.053358
    H   H148  0.140814  0.820627  0.471825  0.117722
    H   H149  0.143579  0.840763  0.426544  0.130993
    H   H150  0.136486  0.760145  0.439502  0.056848
    H   H151  0.989424  0.770330  0.414634  0.046696
    H   H152  0.064857  0.781542  0.394725  0.048215
    H   H153  0.012781  0.846579  0.400571  0.054700
    H   H154  0.181394  0.142838  0.473791  0.101121
    H   H155  0.159749  0.147251  0.428764  0.122103
    H   H156  0.240663  0.138592  0.440776  0.046125
    H   H157  0.949195  0.691572  0.546598  0.156333
    H   H158  0.228354  0.992685  0.414971  0.044870
    H   H159  0.217151  0.068645  0.395699  0.049287
    H   H160  0.151921  0.016839  0.401607  0.051913
    H   H161  0.858990  0.179801  0.473112  0.104196
    H   H162  0.855135  0.159740  0.427836  0.122669
    H   H163  0.862812  0.240324  0.440776  0.047724
    H   H164  0.009344  0.229490  0.414832  0.045033
    H   H165  0.933366  0.218748  0.395480  0.047296
    H   H166  0.985191  0.153406  0.400927  0.051654
    H   H167  0.821600  0.139525  0.528398  0.114343
    H   H168  0.191391  0.451339  0.952423  0.150058
    H   H169  0.840659  0.142129  0.573834  0.128605
    H   H170  0.760292  0.135642  0.560268  0.053973
    H   H171  0.769554  0.988225  0.585433  0.047004
    H   H172  0.780334  0.063795  0.605277  0.046296
    H   H173  0.845512  0.011759  0.599835  0.053616
    H   H174  0.140791  0.179352  0.528190  0.117713
    H   H175  0.143544  0.159234  0.573473  0.131008
    H   H176  0.136468  0.239848  0.560505  0.056937
    H   H177  0.989395  0.229685  0.585368  0.046321
    H   H178  0.064826  0.218477  0.605281  0.047994
    H   H179  0.551648  0.191734  0.953139  0.155708
    H   H180  0.012747  0.153440  0.599439  0.054492
    H   H181  0.181402  0.857173  0.526217  0.101141
    H   H182  0.159756  0.852762  0.571244  0.122083
    H   H183  0.240670  0.861424  0.559232  0.046136
    H   H184  0.228352  0.007333  0.585034  0.044872
    H   H185  0.217154  0.931373  0.604307  0.049256
    H   H186  0.151921  0.983174  0.598398  0.051852
    H   H187  0.858969  0.820181  0.526873  0.104323
    H   H188  0.855101  0.840258  0.572146  0.122792
    H   H189  0.862793  0.759670  0.559217  0.047843
    H   H190  0.808104  0.552781  0.953810  0.158395
    H   H191  0.009314  0.770524  0.585166  0.044959
    H   H192  0.933332  0.781269  0.604513  0.047197
    H   H193  0.985157  0.846611  0.599065  0.051575
    H   H194  0.321941  0.360932  0.971204  0.114384
    H   H195  0.340711  0.358693  0.925726  0.128484
    H   H196  0.260415  0.364894  0.939470  0.054550
    H   H197  0.269377  0.512580  0.914549  0.046979
    H   H198  0.280064  0.437120  0.894558  0.045453
    H   H199  0.345264  0.489128  0.900001  0.053364
    H   H200  0.641202  0.320259  0.972178  0.115945
    H   H201  0.448599  0.808410  0.953598  0.156310
    H   H202  0.644297  0.340682  0.926943  0.130546
    H   H203  0.636931  0.260001  0.939722  0.055777
    H   H204  0.490107  0.270506  0.914650  0.045402
    H   H205  0.565640  0.281776  0.894872  0.048003
    H   H206  0.513564  0.346811  0.900723  0.053810
    H   H207  0.681067  0.642443  0.973413  0.103570
    H   H208  0.659695  0.646518  0.928337  0.123448
    H   H209  0.740553  0.638101  0.940524  0.047534
    H   H210  0.728522  0.491955  0.914938  0.044107
    H   H211  0.717378  0.567810  0.895525  0.048746
    H   H212  0.191388  0.548647  0.047581  0.150340
    H   H213  0.652142  0.516013  0.901438  0.051078
    H   H214  0.358542  0.680106  0.973528  0.103845
    H   H215  0.354318  0.659769  0.928301  0.122271
    H   H216  0.362248  0.740416  0.941064  0.046876
    H   H217  0.508512  0.729316  0.914865  0.045229
    H   H218  0.432419  0.718491  0.895671  0.048050
    H   H219  0.484273  0.653169  0.901104  0.051628
    H   H220  0.321933  0.639060  0.028804  0.114296
    H   H221  0.340702  0.641297  0.074283  0.128350
    H   H222  0.260407  0.635092  0.060538  0.054444
    H   H223  0.423434  0.939242  0.826504  0.215341
    H   H224  0.551677  0.808264  0.046852  0.156157
    H   H225  0.269376  0.487404  0.085455  0.046985
    H   H226  0.280060  0.562864  0.105448  0.045580
    H   H227  0.345262  0.510859  0.100003  0.053516
    H   H228  0.641227  0.679768  0.027806  0.115872
    H   H229  0.644336  0.659324  0.073037  0.130517
    H   H230  0.636952  0.740010  0.060271  0.055815
    H   H231  0.490140  0.729478  0.085347  0.045387
    H   H232  0.565676  0.718206  0.105121  0.047965
    H   H233  0.513602  0.653170  0.099266  0.053845
    H   H234  0.681059  0.357549  0.026578  0.103502
    H   H235  0.808101  0.447205  0.046185  0.158447
    H   H236  0.659687  0.353471  0.071655  0.123443
    H   H237  0.740546  0.361885  0.059467  0.047401
    H   H238  0.728522  0.508030  0.085058  0.044167
    H   H239  0.717374  0.432173  0.104469  0.048749
    H   H240  0.652141  0.483974  0.098557  0.051170
    H   H241  0.358565  0.319917  0.026489  0.104186
    H   H242  0.354356  0.340236  0.071720  0.122469
    H   H243  0.362269  0.259592  0.058945  0.047084
    H   H244  0.508545  0.270671  0.085137  0.045146
    H   H245  0.432457  0.281494  0.104337  0.047980
    H   H246  0.448627  0.191588  0.046412  0.156275
    H   H247  0.484311  0.346815  0.098906  0.051557
    H   H248  0.653801  0.999081  0.895434  0.074542
    H   H249  0.682940  0.074623  0.907862  0.074985
    H   H250  0.667581  0.057983  0.862859  0.022513
    H   H251  0.533532  0.150868  0.890399  0.099496
    H   H252  0.596284  0.146026  0.859258  0.035363
    H   H253  0.613146  0.163797  0.903680  0.143849
    H   H254  0.993897  0.648834  0.872726  0.032293
    H   H255  0.058173  0.420007  0.826601  0.183115
    H   H256  0.961981  0.671260  0.913981  0.043537
    H   H257  0.915159  0.678285  0.875351  0.035145
    H   H258  0.847754  0.533324  0.892082  0.086800
    H   H259  0.852419  0.593537  0.859541  0.040077
    H   H260  0.836492  0.613918  0.903846  0.146756
    H   H261  0.349990  0.994349  0.873085  0.031464
    H   H262  0.328045  0.962502  0.914438  0.041794
    H   H263  0.320574  0.915613  0.875861  0.034066
    H   H264  0.465828  0.848336  0.891926  0.083367
    H   H265  0.405077  0.852982  0.859701  0.039314
    H   H266  0.578468  0.941137  0.173540  0.182240
    H   H267  0.385463  0.836921  0.904112  0.144211
    H   H268  0.998429  0.345338  0.896145  0.072479
    H   H269  0.074111  0.316195  0.908309  0.072394
    H   H270  0.056801  0.331148  0.863337  0.020392
    H   H271  0.150246  0.465369  0.889907  0.094417
    H   H272  0.145273  0.401621  0.859403  0.031641
    H   H273  0.163271  0.386210  0.903975  0.138673
    H   H274  0.653786  0.000907  0.104580  0.074504
    H   H275  0.682921  0.925367  0.092147  0.074989
    H   H276  0.667556  0.941996  0.137151  0.022646
    H   H277  0.938574  0.424888  0.173615  0.216151
    H   H278  0.533504  0.849129  0.109595  0.099720
    H   H279  0.596240  0.853965  0.140746  0.035624
    H   H280  0.613124  0.836196  0.096327  0.143997
    H   H281  0.993889  0.351154  0.127275  0.032185
    H   H282  0.961978  0.328728  0.086018  0.043543
    H   H283  0.915153  0.321701  0.124647  0.035128
    H   H284  0.847744  0.466659  0.107915  0.086702
    H   H285  0.852409  0.406446  0.140455  0.039981
    H   H286  0.836486  0.386066  0.096150  0.146693
    H   H287  0.349969  0.005642  0.126908  0.031268
    H   H288  0.423408  0.060757  0.173494  0.215246
    H   H289  0.328032  0.037485  0.085553  0.041629
    H   H290  0.320547  0.084375  0.124129  0.033855
    H   H291  0.465803  0.151661  0.108079  0.083178
    H   H292  0.405039  0.147012  0.140296  0.039156
    H   H293  0.385442  0.163073  0.095882  0.144004
    H   H294  0.998421  0.654650  0.103855  0.072473
    H   H295  0.074105  0.683792  0.091692  0.072459
    H   H296  0.056792  0.668840  0.136664  0.020468
    H   H297  0.150236  0.534617  0.110096  0.094566
    H   H298  0.145261  0.598363  0.140600  0.031666
    H   H299  0.058156  0.579982  0.173400  0.182941
    H   H300  0.163263  0.613775  0.096029  0.138779
    H   H301  0.153780  0.498959  0.395509  0.074538
    H   H302  0.183014  0.574500  0.407872  0.074860
    H   H303  0.167654  0.557741  0.362881  0.022510
    H   H304  0.033706  0.650877  0.390286  0.098412
    H   H305  0.096613  0.645946  0.359246  0.034928
    H   H306  0.113264  0.663740  0.403690  0.142382
    H   H307  0.493752  0.148898  0.372709  0.031978
    H   H308  0.461819  0.171340  0.413956  0.043340
    H   H309  0.414976  0.178247  0.375327  0.034768
    H   H310  0.078547  0.558849  0.326464  0.182387
    H   H311  0.347736  0.033258  0.392199  0.087812
    H   H312  0.352304  0.093357  0.359587  0.040795
    H   H313  0.336425  0.113885  0.403876  0.147775
    H   H314  0.850013  0.494518  0.373123  0.031313
    H   H315  0.828109  0.462695  0.414490  0.041762
    H   H316  0.820492  0.415823  0.375916  0.033943
    H   H317  0.965728  0.348379  0.391803  0.081879
    H   H318  0.904833  0.353123  0.359669  0.038182
    H   H319  0.885410  0.337011  0.404102  0.142401
    H   H320  0.498564  0.845346  0.396041  0.072700
    N   N1    0.588841  0.071265  0.894357  -0.084877
    N   N2    0.428247  0.087504  0.394163  -0.070337
    N   N3    0.911552  0.428880  0.394317  -0.077511
    N   N4    0.570752  0.910269  0.394522  -0.088043
    N   N5    0.088937  0.428782  0.605641  -0.086039
    N   N6    0.428254  0.912513  0.605839  -0.070273
    N   N7    0.911571  0.571127  0.605686  -0.077611
    N   N8    0.570761  0.089746  0.605477  -0.088240
    N   N9    0.423958  0.075293  0.791845  -0.037084
    N   N10   0.915740  0.416052  0.781383  0.261446
    N   N11   0.582457  0.916441  0.781376  0.261126
    N   N12   0.928305  0.587496  0.894146  -0.071907
    N   N13   0.074449  0.574707  0.791853  -0.038362
    N   N14   0.423930  0.924713  0.208159  -0.037702
    N   N15   0.915717  0.583938  0.218614  0.261878
    N   N16   0.582431  0.083564  0.218621  0.260814
    N   N17   0.074428  0.425284  0.208150  -0.039452
    N   N18   0.923961  0.575341  0.291844  -0.037317
    N   N19   0.415701  0.916109  0.281390  0.260107
    N   N20   0.082453  0.416480  0.281376  0.262061
    N   N21   0.574404  0.074771  0.291848  -0.040894
    N   N22   0.923987  0.424656  0.708153  -0.036549
    N   N23   0.411576  0.928798  0.894321  -0.074588
    N   N24   0.415725  0.083903  0.718615  0.260297
    N   N25   0.082476  0.583517  0.718627  0.261487
    N   N26   0.574425  0.925240  0.708150  -0.040891
    N   N27   0.814837  0.945012  0.445386  0.028080
    N   N28   0.056250  0.815199  0.445581  0.022202
    N   N29   0.184603  0.058987  0.446721  0.008156
    N   N30   0.942980  0.184993  0.446260  0.021593
    N   N31   0.814840  0.055001  0.554609  0.028541
    N   N32   0.056224  0.184805  0.554428  0.021849
    N   N33   0.184606  0.941026  0.553285  0.008299
    N   N34   0.070695  0.410167  0.894534  -0.089003
    N   N35   0.942954  0.815011  0.553732  0.021490
    N   N36   0.314803  0.445622  0.945192  0.030114
    N   N37   0.556787  0.315214  0.945759  0.020318
    N   N38   0.684622  0.558424  0.946521  0.009791
    N   N39   0.442347  0.684955  0.946477  0.021763
    N   N40   0.314799  0.554367  0.054814  0.029752
    N   N41   0.556817  0.684783  0.054231  0.019549
    N   N42   0.684619  0.441565  0.053473  0.009674
    N   N43   0.442376  0.315043  0.053533  0.022333
    N   N44   0.588820  0.928729  0.105647  -0.084614
    N   N45   0.928298  0.412490  0.105852  -0.072233
    N   N46   0.411556  0.071197  0.105675  -0.075389
    N   N47   0.070686  0.589821  0.105468  -0.089295
    N   N48   0.088918  0.571226  0.394355  -0.086247
    O   O1    0.588641  0.051502  0.490866  -0.652215
    O   O2    0.448873  0.088877  0.990996  -0.653433
    O   O3    0.910817  0.448248  0.991308  -0.648728
    O   O4    0.552118  0.911052  0.991194  -0.648993
    O   O5    0.088626  0.448508  0.009151  -0.652692
    O   O6    0.448872  0.911121  0.009002  -0.653402
    O   O7    0.910816  0.551738  0.008689  -0.648739
    O   O8    0.552116  0.088946  0.008809  -0.648991
    O   O9    0.515791  0.052086  0.549374  -0.624207
    O   O10   0.949175  0.516256  0.549576  -0.624411
    O   O11   0.483637  0.949325  0.549805  -0.618080
    O   O12   0.948919  0.588878  0.490991  -0.653396
    O   O13   0.051930  0.484083  0.549602  -0.613683
    O   O14   0.515787  0.947931  0.450626  -0.624155
    O   O15   0.949166  0.483748  0.450426  -0.624532
    O   O16   0.483633  0.050691  0.450197  -0.618216
    O   O17   0.051921  0.515922  0.450395  -0.613640
    O   O18   0.015794  0.552085  0.049366  -0.623638
    O   O19   0.449118  0.016243  0.049575  -0.625128
    O   O20   0.983605  0.449334  0.049808  -0.617045
    O   O21   0.551883  0.984103  0.049608  -0.613803
    O   O22   0.015798  0.447901  0.950635  -0.623961
    O   O23   0.410823  0.948262  0.491315  -0.648562
    O   O24   0.449128  0.983756  0.950423  -0.625453
    O   O25   0.983609  0.550652  0.950191  -0.617144
    O   O26   0.551892  0.015895  0.950396  -0.614156
    O   O27   0.016813  0.089070  0.471566  -0.672161
    O   O28   0.910887  0.017121  0.471458  -0.678939
    O   O29   0.982841  0.911191  0.471297  -0.671911
    O   O30   0.088763  0.983150  0.471404  -0.659947
    O   O31   0.016810  0.910933  0.528435  -0.672337
    O   O32   0.910884  0.982882  0.528539  -0.678936
    O   O33   0.982837  0.088812  0.528703  -0.671908
    O   O34   0.052154  0.411060  0.491177  -0.648914
    O   O35   0.088760  0.016854  0.528599  -0.659917
    O   O36   0.516801  0.589074  0.971570  -0.669434
    O   O37   0.410876  0.517126  0.971463  -0.681996
    O   O38   0.482830  0.411194  0.971291  -0.669069
    O   O39   0.588751  0.483151  0.971401  -0.663289
    O   O40   0.516803  0.410924  0.028430  -0.669674
    O   O41   0.410879  0.482873  0.028540  -0.682014
    O   O42   0.482833  0.588805  0.028710  -0.668891
    O   O43   0.588754  0.516847  0.028596  -0.663152
    O   O44   0.588641  0.948514  0.509132  -0.652290
    O   O45   0.948920  0.411127  0.509011  -0.653417
    O   O46   0.410823  0.051754  0.508688  -0.648587
    O   O47   0.052155  0.588944  0.508820  -0.648878
    O   O48   0.088627  0.551478  0.990851  -0.652722
