# Generated by REPEAT Assigner based on pymatgen
data_DB0-m2_o1_o3_f0_nbo.sym.68
_audit_creation_date              2022-05-24
_audit_creation_method            REPEAT_Assigner
_cell_length_a                    21.532590
_cell_length_b                    21.532590
_cell_length_c                    38.468276
_cell_angle_alpha                 90.000000
_cell_angle_beta                  90.000000
_cell_angle_gamma                 90.000000
_cell_volume                      17835.909256
_symmetry_space_group_name_H-M    P1
_symmetry_Int_Tables_number       1
loop_
    _symmetry_equiv_pos_site_id
    _symmetry_equiv_pos_as_xyz
    1  x,y,z
loop_
    _atom_site_type_symbol
    _atom_site_label
    _atom_site_fract_x
    _atom_site_fract_y
    _atom_site_fract_z
    _atom_type_partial_charge
    C   C1    0.617601  0.000000  0.500000  0.678204
    C   C2    0.000000  0.500000  0.565921  0.763311
    C   C3    0.460594  0.782394  0.978281  -0.240070
    C   C4    0.217607  0.539407  0.021719  -0.239816
    C   C5    0.539406  0.782394  0.021719  -0.239986
    C   C6    0.782393  0.460594  0.021719  -0.239955
    C   C7    0.460594  0.217607  0.021719  -0.239960
    C   C8    0.781576  0.961927  0.477243  0.149985
    C   C9    0.038074  0.781577  0.477243  0.149834
    C   C10   0.218424  0.038074  0.477243  0.149611
    C   C11   0.961926  0.218424  0.477243  0.149891
    C   C12   0.781576  0.038074  0.522757  0.149567
    C   C13   0.500000  0.000000  0.434079  0.763669
    C   C14   0.038074  0.218424  0.522757  0.149758
    C   C15   0.218424  0.961927  0.522757  0.149947
    C   C16   0.961926  0.781577  0.522757  0.149814
    C   C17   0.281576  0.461927  0.977243  0.150027
    C   C18   0.538074  0.281577  0.977243  0.149989
    C   C19   0.718424  0.538074  0.977243  0.149725
    C   C20   0.461926  0.718424  0.977243  0.149753
    C   C21   0.281576  0.538074  0.022757  0.149606
    C   C22   0.538074  0.718424  0.022757  0.149830
    C   C23   0.718424  0.461927  0.022757  0.150005
    C   C24   0.000000  0.500000  0.434079  0.763525
    C   C25   0.461926  0.281577  0.022757  0.149700
    C   C26   0.814222  0.000000  0.500000  -0.189886
    C   C27   0.000000  0.814222  0.500000  -0.189961
    C   C28   0.185778  0.000000  0.500000  -0.189905
    C   C29   0.000000  0.185778  0.500000  -0.190100
    C   C30   0.314222  0.500000  0.000000  -0.190137
    C   C31   0.500000  0.314222  0.000000  -0.190083
    C   C32   0.685778  0.500000  0.000000  -0.190121
    C   C33   0.500000  0.685778  0.000000  -0.190180
    C   C34   0.685465  0.000000  0.500000  0.040497
    C   C35   0.000000  0.500000  0.065921  0.763607
    C   C36   0.000000  0.685465  0.500000  0.040706
    C   C37   0.314535  0.000000  0.500000  0.040446
    C   C38   0.000000  0.314536  0.500000  0.040589
    C   C39   0.185464  0.500000  0.000000  0.040357
    C   C40   0.500000  0.185465  0.000000  0.040694
    C   C41   0.814535  0.500000  0.000000  0.040444
    C   C42   0.500000  0.814536  0.000000  0.040772
    C   C43   0.000000  0.117630  0.500000  0.533741
    C   C44   0.882370  0.000000  0.500000  0.533535
    C   C45   0.000000  0.882370  0.500000  0.533523
    C   C46   0.500000  0.000000  0.065922  0.763563
    C   C47   0.117630  0.000000  0.500000  0.533568
    C   C48   0.500000  0.617630  0.000000  0.534068
    C   C49   0.382370  0.500000  0.000000  0.534124
    C   C50   0.500000  0.382370  0.000000  0.533999
    C   C51   0.617630  0.500000  0.000000  0.534019
    C   C52   0.421594  0.083719  0.786948  0.116359
    C   C53   0.448340  0.132450  0.804828  -0.072028
    C   C54   0.411613  0.173784  0.822837  -0.340335
    C   C55   0.348019  0.166582  0.823028  0.439466
    C   C56   0.321154  0.117991  0.805192  -0.359761
    C   C57   0.000000  0.500000  0.934078  0.763783
    C   C58   0.357850  0.076573  0.787191  -0.040827
    C   C59   0.916281  0.421594  0.786948  0.116481
    C   C60   0.867550  0.448340  0.804828  -0.072180
    C   C61   0.826216  0.411613  0.822837  -0.340281
    C   C62   0.833418  0.348019  0.823028  0.439415
    C   C63   0.882010  0.321154  0.805192  -0.359792
    C   C64   0.923428  0.357851  0.787191  -0.040899
    C   C65   0.578406  0.916281  0.786948  0.116314
    C   C66   0.551660  0.867551  0.804828  -0.072024
    C   C67   0.588387  0.826217  0.822837  -0.340560
    C   C68   0.500000  0.000000  0.934079  0.763655
    C   C69   0.651981  0.833418  0.823028  0.439685
    C   C70   0.678846  0.882010  0.805192  -0.359893
    C   C71   0.642149  0.923428  0.787191  -0.040765
    C   C72   0.083719  0.578407  0.786948  0.116669
    C   C73   0.132449  0.551660  0.804828  -0.071949
    C   C74   0.173783  0.588388  0.822837  -0.340544
    C   C75   0.166582  0.651981  0.823028  0.439520
    C   C76   0.117990  0.678846  0.805192  -0.359709
    C   C77   0.076572  0.642150  0.787191  -0.040831
    C   C78   0.421594  0.916281  0.213052  0.116142
    C   C79   0.446309  0.986269  0.878140  -0.107492
    C   C80   0.448340  0.867551  0.195172  -0.072002
    C   C81   0.411613  0.826217  0.177163  -0.340472
    C   C82   0.348019  0.833418  0.176972  0.439662
    C   C83   0.321154  0.882010  0.194808  -0.359848
    C   C84   0.357850  0.923428  0.212809  -0.040667
    C   C85   0.916281  0.578407  0.213052  0.116508
    C   C86   0.867550  0.551660  0.195172  -0.072225
    C   C87   0.826216  0.588388  0.177163  -0.340242
    C   C88   0.833418  0.651981  0.176972  0.439261
    C   C89   0.882010  0.678846  0.194808  -0.359690
    C   C90   0.013731  0.446310  0.878140  -0.107431
    C   C91   0.923428  0.642150  0.212809  -0.040678
    C   C92   0.578406  0.083719  0.213052  0.116101
    C   C93   0.551660  0.132450  0.195172  -0.072053
    C   C94   0.588387  0.173784  0.177163  -0.340234
    C   C95   0.651981  0.166582  0.176972  0.439438
    C   C96   0.678846  0.117990  0.194808  -0.359734
    C   C97   0.642150  0.076573  0.212809  -0.040700
    C   C98   0.083719  0.421594  0.213052  0.116232
    C   C99   0.132450  0.448340  0.195172  -0.072102
    C   C100  0.173783  0.411613  0.177162  -0.340223
    C   C101  0.553690  0.013732  0.878140  -0.107474
    C   C102  0.166582  0.348019  0.176972  0.439447
    C   C103  0.117990  0.321154  0.194808  -0.359737
    C   C104  0.076572  0.357851  0.212809  -0.040809
    C   C105  0.921594  0.583719  0.286948  0.116149
    C   C106  0.948340  0.632450  0.304828  -0.072062
    C   C107  0.911613  0.673784  0.322837  -0.340267
    C   C108  0.848019  0.666583  0.323028  0.439502
    C   C109  0.821154  0.617991  0.305192  -0.359789
    C   C110  0.857850  0.576573  0.287191  -0.040682
    C   C111  0.416281  0.921594  0.286948  0.116260
    C   C112  0.000000  0.617601  0.500000  0.678027
    C   C113  0.986269  0.553691  0.878140  -0.107374
    C   C114  0.367550  0.948340  0.304828  -0.072105
    C   C115  0.326216  0.911613  0.322837  -0.340254
    C   C116  0.333418  0.848019  0.323028  0.439478
    C   C117  0.382010  0.821154  0.305192  -0.359840
    C   C118  0.423428  0.857851  0.287191  -0.040733
    C   C119  0.078406  0.416281  0.286948  0.116507
    C   C120  0.051660  0.367551  0.304828  -0.072228
    C   C121  0.088387  0.326217  0.322837  -0.340269
    C   C122  0.151981  0.333418  0.323028  0.439445
    C   C123  0.178846  0.382010  0.305192  -0.359823
    C   C124  0.446309  0.013732  0.121860  -0.107459
    C   C125  0.142149  0.423428  0.287191  -0.040846
    C   C126  0.583719  0.078407  0.286948  0.116379
    C   C127  0.632450  0.051660  0.304828  -0.072252
    C   C128  0.673784  0.088388  0.322837  -0.340261
    C   C129  0.666582  0.151981  0.323028  0.439523
    C   C130  0.617990  0.178846  0.305192  -0.359960
    C   C131  0.576572  0.142150  0.287191  -0.040475
    C   C132  0.921594  0.416281  0.713052  0.116360
    C   C133  0.948340  0.367551  0.695172  -0.072434
    C   C134  0.911613  0.326217  0.677162  -0.339892
    C   C135  0.013731  0.553691  0.121860  -0.107350
    C   C136  0.848019  0.333418  0.676972  0.438980
    C   C137  0.821154  0.382010  0.694808  -0.359179
    C   C138  0.857850  0.423428  0.712809  -0.041006
    C   C139  0.416281  0.078407  0.713052  0.116542
    C   C140  0.367550  0.051660  0.695172  -0.072643
    C   C141  0.326216  0.088388  0.677162  -0.339766
    C   C142  0.333418  0.151981  0.676972  0.438976
    C   C143  0.382010  0.178846  0.694808  -0.359235
    C   C144  0.423428  0.142150  0.712809  -0.040915
    C   C145  0.078406  0.583719  0.713052  0.116517
    C   C146  0.553690  0.986269  0.121860  -0.107454
    C   C147  0.051660  0.632450  0.695172  -0.072449
    C   C148  0.088387  0.673784  0.677163  -0.339924
    C   C149  0.151981  0.666582  0.676972  0.439010
    C   C150  0.178846  0.617991  0.694808  -0.359079
    C   C151  0.142149  0.576573  0.712809  -0.041240
    C   C152  0.583719  0.921594  0.713052  0.116397
    C   C153  0.632450  0.948340  0.695172  -0.072420
    C   C154  0.673784  0.911613  0.677163  -0.339963
    C   C155  0.666582  0.848019  0.676972  0.439003
    C   C156  0.617990  0.821154  0.694808  -0.359219
    C   C157  0.986269  0.446310  0.121860  -0.107182
    C   C158  0.576572  0.857851  0.712809  -0.041026
    C   C159  0.813224  0.918955  0.453692  0.090901
    C   C160  0.807815  0.855971  0.459182  -0.147553
    C   C161  0.837547  0.814589  0.437512  -0.258341
    C   C162  0.871139  0.836128  0.409525  0.418278
    C   C163  0.873867  0.898947  0.402842  -0.282395
    C   C164  0.844290  0.940261  0.424640  -0.129107
    C   C165  0.081045  0.813224  0.453692  0.091357
    C   C166  0.144029  0.807816  0.459182  -0.147762
    C   C167  0.185411  0.837547  0.437512  -0.258223
    C   C168  0.946309  0.486269  0.378140  -0.107476
    C   C169  0.163872  0.871139  0.409526  0.418255
    C   C170  0.101054  0.873867  0.402842  -0.282335
    C   C171  0.059739  0.844290  0.424640  -0.129524
    C   C172  0.186776  0.081046  0.453692  0.091385
    C   C173  0.192185  0.144029  0.459182  -0.147615
    C   C174  0.162453  0.185411  0.437512  -0.258313
    C   C175  0.128861  0.163872  0.409525  0.418057
    C   C176  0.126134  0.101054  0.402842  -0.281970
    C   C177  0.155710  0.059739  0.424640  -0.129673
    C   C178  0.918955  0.186776  0.453692  0.091002
    C   C179  0.513731  0.946310  0.378140  -0.107440
    C   C180  0.855971  0.192185  0.459182  -0.147412
    C   C181  0.814589  0.162453  0.437512  -0.258484
    C   C182  0.836128  0.128861  0.409525  0.418218
    C   C183  0.898947  0.126134  0.402842  -0.282152
    C   C184  0.940261  0.155711  0.424640  -0.129206
    C   C185  0.813224  0.081046  0.546308  0.091390
    C   C186  0.807815  0.144029  0.540818  -0.147849
    C   C187  0.837547  0.185411  0.562488  -0.258217
    C   C188  0.871139  0.163872  0.590475  0.418063
    C   C189  0.873866  0.101054  0.597158  -0.282184
    C   C190  0.053691  0.513732  0.378140  -0.107506
    C   C191  0.844290  0.059739  0.575360  -0.129320
    C   C192  0.081045  0.186776  0.546308  0.091163
    C   C193  0.144029  0.192185  0.540818  -0.147573
    C   C194  0.185411  0.162453  0.562488  -0.258410
    C   C195  0.163872  0.128862  0.590475  0.418147
    C   C196  0.101053  0.126134  0.597158  -0.282076
    C   C197  0.059739  0.155711  0.575360  -0.129210
    C   C198  0.186776  0.918955  0.546308  0.090952
    C   C199  0.192185  0.855971  0.540818  -0.147581
    C   C200  0.162453  0.814589  0.562488  -0.258420
    C   C201  0.486269  0.053691  0.378140  -0.107485
    C   C202  0.128861  0.836128  0.590475  0.418316
    C   C203  0.126134  0.898947  0.597158  -0.282315
    C   C204  0.155710  0.940261  0.575360  -0.129091
    C   C205  0.918955  0.813224  0.546308  0.091212
    C   C206  0.855971  0.807815  0.540818  -0.147621
    C   C207  0.814589  0.837547  0.562488  -0.258475
    C   C208  0.836128  0.871139  0.590475  0.418246
    C   C209  0.898947  0.873867  0.597158  -0.282250
    C   C210  0.940261  0.844290  0.575360  -0.129355
    C   C211  0.313224  0.418955  0.953692  0.090809
    C   C212  0.946309  0.513731  0.621860  -0.107185
    C   C213  0.307815  0.355971  0.959182  -0.147343
    C   C214  0.337547  0.314589  0.937512  -0.258492
    C   C215  0.371139  0.336128  0.909525  0.418176
    C   C216  0.373866  0.398947  0.902842  -0.282111
    C   C217  0.344289  0.440261  0.924640  -0.129114
    C   C218  0.581045  0.313224  0.953692  0.090963
    C   C219  0.644029  0.307816  0.959182  -0.147373
    C   C220  0.685411  0.337547  0.937512  -0.258532
    C   C221  0.663872  0.371139  0.909525  0.418141
    C   C222  0.601053  0.373867  0.902842  -0.282073
    C   C223  0.382399  0.000000  0.500000  0.678207
    C   C224  0.513731  0.053691  0.621860  -0.107250
    C   C225  0.559739  0.344290  0.924640  -0.129370
    C   C226  0.686776  0.581046  0.953692  0.091240
    C   C227  0.692185  0.644029  0.959182  -0.147504
    C   C228  0.662453  0.685411  0.937512  -0.258475
    C   C229  0.628861  0.663872  0.909525  0.418150
    C   C230  0.626133  0.601054  0.902842  -0.282019
    C   C231  0.655710  0.559739  0.924640  -0.129575
    C   C232  0.418955  0.686776  0.953692  0.091253
    C   C233  0.355971  0.692185  0.959182  -0.147622
    C   C234  0.314589  0.662453  0.937512  -0.258290
    C   C235  0.053691  0.486269  0.621860  -0.107249
    C   C236  0.336128  0.628862  0.909525  0.418030
    C   C237  0.398947  0.626134  0.902842  -0.281955
    C   C238  0.440261  0.655711  0.924640  -0.129419
    C   C239  0.313224  0.581046  0.046308  0.091385
    C   C240  0.307815  0.644029  0.040818  -0.147737
    C   C241  0.337547  0.685411  0.062488  -0.258103
    C   C242  0.371139  0.663873  0.090474  0.417960
    C   C243  0.373866  0.601054  0.097158  -0.282197
    C   C244  0.344290  0.559739  0.075360  -0.129504
    C   C245  0.581045  0.686776  0.046308  0.091146
    C   C246  0.486269  0.946310  0.621860  -0.107253
    C   C247  0.644029  0.692185  0.040818  -0.147575
    C   C248  0.685411  0.662453  0.062488  -0.258403
    C   C249  0.663872  0.628862  0.090475  0.418252
    C   C250  0.601053  0.626134  0.097158  -0.282098
    C   C251  0.559739  0.655711  0.075360  -0.129316
    C   C252  0.686776  0.418955  0.046308  0.090854
    C   C253  0.692185  0.355971  0.040818  -0.147673
    C   C254  0.662453  0.314589  0.062488  -0.258126
    C   C255  0.628861  0.336128  0.090474  0.418170
    C   C256  0.626133  0.398947  0.097158  -0.282551
    C   C257  0.446716  0.984837  0.842344  -0.163892
    C   C258  0.655710  0.440261  0.075360  -0.128899
    C   C259  0.418955  0.313224  0.046308  0.091524
    C   C260  0.355971  0.307816  0.040818  -0.147973
    C   C261  0.314589  0.337547  0.062488  -0.258046
    C   C262  0.336128  0.371139  0.090474  0.418120
    C   C263  0.398946  0.373867  0.097158  -0.282305
    C   C264  0.440261  0.344290  0.075360  -0.129590
    C   C265  0.015163  0.446716  0.842344  -0.163813
    C   C266  0.553284  0.015164  0.842344  -0.163845
    C   C267  0.984837  0.553285  0.842344  -0.163887
    C   C268  0.446716  0.015163  0.157656  -0.163773
    C   C269  0.015163  0.553285  0.157656  -0.163823
    C   C270  0.553284  0.984837  0.157656  -0.163848
    C   C271  0.000000  0.382399  0.500000  0.678197
    C   C272  0.984837  0.446716  0.157656  -0.163781
    C   C273  0.946716  0.484837  0.342344  -0.163955
    C   C274  0.515163  0.946716  0.342344  -0.163855
    C   C275  0.053284  0.515163  0.342344  -0.163872
    C   C276  0.484837  0.053285  0.342344  -0.163870
    C   C277  0.946716  0.515163  0.657656  -0.163885
    C   C278  0.515163  0.053285  0.657656  -0.163909
    C   C279  0.053284  0.484837  0.657656  -0.163958
    C   C280  0.484837  0.946716  0.657656  -0.163842
    C   C281  0.500000  0.000000  0.824238  0.291031
    C   C282  0.117601  0.500000  0.000000  0.678424
    C   C283  0.000000  0.500000  0.824238  0.290730
    C   C284  0.500000  0.000000  0.175762  0.290927
    C   C285  0.000000  0.500000  0.175762  0.290718
    C   C286  0.000000  0.500000  0.324238  0.291023
    C   C287  0.500000  0.000000  0.324238  0.290881
    C   C288  0.000000  0.500000  0.675762  0.291054
    C   C289  0.500000  0.000000  0.675762  0.290896
    C   C290  0.500000  0.000000  0.896130  -0.094923
    C   C291  0.000000  0.500000  0.896130  -0.094861
    C   C292  0.500000  0.000000  0.103870  -0.094815
    C   C293  0.500000  0.117601  0.000000  0.677977
    C   C294  0.000000  0.500000  0.103870  -0.095053
    C   C295  0.000000  0.500000  0.396130  -0.094781
    C   C296  0.500000  0.000000  0.396130  -0.094882
    C   C297  0.000000  0.500000  0.603870  -0.095028
    C   C298  0.500000  0.000000  0.603870  -0.095037
    C   C299  0.461018  0.039782  0.767997  -0.039904
    C   C300  0.960219  0.461019  0.767997  -0.040005
    C   C301  0.538982  0.960219  0.767997  -0.039761
    C   C302  0.039781  0.538982  0.767997  -0.040077
    C   C303  0.461018  0.960219  0.232003  -0.039616
    C   C304  0.882399  0.500000  0.000000  0.678315
    C   C305  0.960219  0.538982  0.232003  -0.039874
    C   C306  0.538982  0.039782  0.232003  -0.039637
    C   C307  0.039781  0.461019  0.232003  -0.039634
    C   C308  0.961018  0.539782  0.267997  -0.039665
    C   C309  0.460219  0.961019  0.267997  -0.039726
    C   C310  0.038982  0.460219  0.267997  -0.039786
    C   C311  0.539781  0.038982  0.267997  -0.039818
    C   C312  0.961018  0.460219  0.732003  -0.039395
    C   C313  0.460219  0.038982  0.732003  -0.039605
    C   C314  0.038982  0.539782  0.732003  -0.039511
    C   C315  0.500000  0.882399  0.000000  0.677987
    C   C316  0.539781  0.961019  0.732003  -0.039548
    C   C317  0.500000  0.000000  0.713943  -0.118036
    C   C318  0.000000  0.500000  0.713943  -0.118203
    C   C319  0.500000  0.000000  0.286057  -0.117870
    C   C320  0.000000  0.500000  0.286057  -0.117973
    C   C321  0.000000  0.500000  0.213943  -0.117816
    C   C322  0.500000  0.000000  0.213943  -0.118014
    C   C323  0.000000  0.500000  0.786057  -0.117632
    C   C324  0.500000  0.000000  0.786057  -0.117935
    C   C325  0.717607  0.960594  0.478281  -0.239994
    C   C326  0.500000  0.000000  0.565921  0.763566
    C   C327  0.039406  0.717607  0.478281  -0.240063
    C   C328  0.282393  0.039407  0.478281  -0.239809
    C   C329  0.960594  0.282394  0.478281  -0.240037
    C   C330  0.717607  0.039406  0.521719  -0.239898
    C   C331  0.039406  0.282394  0.521719  -0.239986
    C   C332  0.282393  0.960594  0.521719  -0.240003
    C   C333  0.960594  0.717607  0.521719  -0.240114
    C   C334  0.217607  0.460594  0.978281  -0.239953
    C   C335  0.539406  0.217607  0.978281  -0.240135
    C   C336  0.782393  0.539407  0.978281  -0.239880
    Cu  Cu1   0.500000  0.060728  0.500000  0.944189
    Cu  Cu2   0.000000  0.000000  0.533696  0.766349
    Cu  Cu3   0.500000  0.500000  0.966304  0.766385
    Cu  Cu4   0.500000  0.500000  0.033696  0.766193
    Cu  Cu5   0.939272  0.500000  0.500000  0.944013
    Cu  Cu6   0.500000  0.939273  0.500000  0.944091
    Cu  Cu7   0.060728  0.500000  0.500000  0.944191
    Cu  Cu8   0.000000  0.560728  0.000000  0.944066
    Cu  Cu9   0.439272  0.000000  0.000000  0.944101
    Cu  Cu10  0.000000  0.439273  0.000000  0.944053
    Cu  Cu11  0.560728  0.000000  0.000000  0.944197
    Cu  Cu12  0.000000  0.000000  0.466304  0.766232
    F   F1    0.311926  0.207234  0.840767  -0.226197
    F   F2    0.292766  0.811926  0.340767  -0.226249
    F   F3    0.188074  0.292766  0.340767  -0.226210
    F   F4    0.707234  0.188074  0.340767  -0.226209
    F   F5    0.811926  0.292766  0.659233  -0.226167
    F   F6    0.292766  0.188074  0.659233  -0.226118
    F   F7    0.188074  0.707234  0.659233  -0.226158
    F   F8    0.707234  0.811926  0.659233  -0.226161
    F   F9    0.900387  0.795517  0.388197  -0.229051
    F   F10   0.204483  0.900387  0.388197  -0.229067
    F   F11   0.099613  0.204484  0.388196  -0.228860
    F   F12   0.792766  0.311926  0.840767  -0.226194
    F   F13   0.795517  0.099613  0.388196  -0.228966
    F   F14   0.900387  0.204484  0.611804  -0.228783
    F   F15   0.204483  0.099613  0.611804  -0.228917
    F   F16   0.099613  0.795517  0.611804  -0.228954
    F   F17   0.795517  0.900387  0.611804  -0.228925
    F   F18   0.400387  0.295517  0.888196  -0.228945
    F   F19   0.704483  0.400387  0.888196  -0.228939
    F   F20   0.599613  0.704483  0.888196  -0.228952
    F   F21   0.295517  0.599613  0.888196  -0.228971
    F   F22   0.400387  0.704484  0.111804  -0.228855
    F   F23   0.688074  0.792767  0.840767  -0.226299
    F   F24   0.704483  0.599613  0.111804  -0.229038
    F   F25   0.599613  0.295517  0.111803  -0.229040
    F   F26   0.295517  0.400387  0.111803  -0.229003
    F   F27   0.207233  0.688075  0.840767  -0.226195
    F   F28   0.311926  0.792767  0.159233  -0.226321
    F   F29   0.792766  0.688075  0.159233  -0.226077
    F   F30   0.688074  0.207234  0.159233  -0.226243
    F   F31   0.207234  0.311926  0.159233  -0.226253
    F   F32   0.811926  0.707234  0.340767  -0.226214
    H   H1    0.404170  0.974655  0.891945  0.123780
    H   H2    0.525346  0.904170  0.391945  0.123735
    H   H3    0.836671  0.461795  0.726505  0.092235
    H   H4    0.361622  0.001816  0.695391  0.088617
    H   H5    0.288114  0.067265  0.663229  0.183678
    H   H6    0.387737  0.228708  0.694608  0.170743
    H   H7    0.461795  0.163330  0.726505  0.092207
    H   H8    0.001816  0.638379  0.695391  0.088605
    H   H9    0.067264  0.711886  0.663229  0.183727
    H   H10   0.228708  0.612264  0.694609  0.170716
    H   H11   0.163329  0.538206  0.726505  0.092177
    H   H12   0.638378  0.998184  0.695391  0.088617
    H   H13   0.095830  0.525346  0.391945  0.123807
    H   H14   0.711886  0.932736  0.663229  0.183729
    H   H15   0.612263  0.771292  0.694609  0.170740
    H   H16   0.538205  0.836671  0.726505  0.092206
    H   H17   0.780332  0.839092  0.480656  0.138501
    H   H18   0.834274  0.765262  0.442385  0.144657
    H   H19   0.899099  0.915826  0.380467  0.149448
    H   H20   0.845521  0.989317  0.418865  0.125232
    H   H21   0.160909  0.780332  0.480656  0.138546
    H   H22   0.234738  0.834274  0.442385  0.144653
    H   H23   0.084174  0.899099  0.380467  0.149418
    H   H24   0.474654  0.095830  0.391945  0.123810
    H   H25   0.010683  0.845521  0.418865  0.125440
    H   H26   0.219668  0.160909  0.480656  0.138567
    H   H27   0.165726  0.234738  0.442385  0.144632
    H   H28   0.100902  0.084174  0.380467  0.149285
    H   H29   0.154479  0.010684  0.418865  0.125475
    H   H30   0.839091  0.219668  0.480656  0.138468
    H   H31   0.765262  0.165726  0.442385  0.144650
    H   H32   0.915826  0.100902  0.380467  0.149365
    H   H33   0.989317  0.154479  0.418865  0.125228
    H   H34   0.780332  0.160909  0.519344  0.138647
    H   H35   0.904170  0.525346  0.608056  0.123646
    H   H36   0.834274  0.234738  0.557615  0.144660
    H   H37   0.899098  0.084174  0.619533  0.149342
    H   H38   0.845521  0.010684  0.581135  0.125236
    H   H39   0.160908  0.219668  0.519344  0.138527
    H   H40   0.234738  0.165726  0.557615  0.144655
    H   H41   0.084174  0.100902  0.619533  0.149325
    H   H42   0.010683  0.154479  0.581135  0.125179
    H   H43   0.219668  0.839092  0.519344  0.138547
    H   H44   0.165726  0.765263  0.557615  0.144640
    H   H45   0.100902  0.915826  0.619533  0.149413
    H   H46   0.525346  0.095830  0.608055  0.123691
    H   H47   0.154479  0.989317  0.581135  0.125190
    H   H48   0.839092  0.780332  0.519344  0.138570
    H   H49   0.765262  0.834274  0.557615  0.144690
    H   H50   0.915826  0.899099  0.619533  0.149447
    H   H51   0.989317  0.845521  0.581135  0.125251
    H   H52   0.280332  0.339092  0.980656  0.138458
    H   H53   0.334274  0.265263  0.942385  0.144629
    H   H54   0.399098  0.415826  0.880467  0.149342
    H   H55   0.345521  0.489317  0.918864  0.125254
    H   H56   0.660908  0.280332  0.980656  0.138460
    H   H57   0.095830  0.474655  0.608055  0.123683
    H   H58   0.734738  0.334274  0.942385  0.144667
    H   H59   0.584174  0.399099  0.880467  0.149391
    H   H60   0.510683  0.345521  0.918864  0.125302
    H   H61   0.719668  0.660909  0.980656  0.138590
    H   H62   0.665726  0.734738  0.942385  0.144672
    H   H63   0.600901  0.584174  0.880467  0.149368
    H   H64   0.654479  0.510684  0.918865  0.125316
    H   H65   0.339091  0.719668  0.980656  0.138528
    H   H66   0.265262  0.665726  0.942385  0.144646
    H   H67   0.415826  0.600902  0.880467  0.149309
    H   H68   0.474654  0.904170  0.608056  0.123635
    H   H69   0.489317  0.654479  0.918865  0.125340
    H   H70   0.280332  0.660909  0.019344  0.138576
    H   H71   0.334274  0.734738  0.057615  0.144632
    H   H72   0.399098  0.584174  0.119533  0.149333
    H   H73   0.345521  0.510684  0.081135  0.125431
    H   H74   0.660908  0.719668  0.019344  0.138507
    H   H75   0.734738  0.665726  0.057615  0.144638
    H   H76   0.584174  0.600902  0.119533  0.149354
    H   H77   0.510683  0.654479  0.081135  0.125270
    H   H78   0.719668  0.339092  0.019344  0.138565
    H   H79   0.405018  0.971879  0.828503  0.095332
    H   H80   0.665726  0.265263  0.057615  0.144609
    H   H81   0.600901  0.415826  0.119533  0.149484
    H   H82   0.654479  0.489317  0.081135  0.125159
    H   H83   0.339091  0.280332  0.019344  0.138612
    H   H84   0.265262  0.334274  0.057615  0.144634
    H   H85   0.415826  0.399099  0.119533  0.149409
    H   H86   0.489317  0.345521  0.081135  0.125469
    H   H87   0.028121  0.405019  0.828503  0.095350
    H   H88   0.594982  0.028122  0.828503  0.095336
    H   H89   0.025346  0.404170  0.891944  0.123729
    H   H90   0.971878  0.594982  0.828503  0.095359
    H   H91   0.405018  0.028122  0.171497  0.095337
    H   H92   0.028121  0.594982  0.171497  0.095346
    H   H93   0.594982  0.971879  0.171497  0.095324
    H   H94   0.971879  0.405019  0.171497  0.095309
    H   H95   0.905018  0.471879  0.328503  0.095319
    H   H96   0.528121  0.905019  0.328503  0.095328
    H   H97   0.094982  0.528122  0.328503  0.095381
    H   H98   0.471879  0.094982  0.328503  0.095352
    H   H99   0.905018  0.528121  0.671497  0.095337
    H   H100  0.595830  0.025346  0.891945  0.123804
    H   H101  0.528121  0.094982  0.671497  0.095371
    H   H102  0.094982  0.471879  0.671497  0.095352
    H   H103  0.471879  0.905019  0.671497  0.095317
    H   H104  0.692851  0.929872  0.460919  0.124584
    H   H105  0.070129  0.692851  0.460919  0.124573
    H   H106  0.307149  0.070129  0.460919  0.124553
    H   H107  0.929871  0.307150  0.460919  0.124634
    H   H108  0.692851  0.070129  0.539081  0.124585
    H   H109  0.070129  0.307150  0.539081  0.124642
    H   H110  0.307149  0.929872  0.539081  0.124605
    H   H111  0.974654  0.595830  0.891944  0.123780
    H   H112  0.929871  0.692851  0.539081  0.124625
    H   H113  0.192850  0.429872  0.960919  0.124595
    H   H114  0.570129  0.192851  0.960919  0.124612
    H   H115  0.807149  0.570129  0.960919  0.124560
    H   H116  0.429871  0.807150  0.960919  0.124641
    H   H117  0.192851  0.570129  0.039081  0.124595
    H   H118  0.570128  0.807150  0.039081  0.124623
    H   H119  0.807149  0.429872  0.039081  0.124581
    H   H120  0.429871  0.192851  0.039081  0.124552
    H   H121  0.498184  0.138379  0.804609  0.088569
    H   H122  0.404170  0.025346  0.108056  0.123769
    H   H123  0.432736  0.211886  0.836771  0.183794
    H   H124  0.271292  0.112263  0.805391  0.170895
    H   H125  0.336671  0.038206  0.773495  0.092178
    H   H126  0.861621  0.498184  0.804609  0.088583
    H   H127  0.788114  0.432736  0.836771  0.183797
    H   H128  0.887737  0.271292  0.805391  0.170900
    H   H129  0.961795  0.336671  0.773495  0.092198
    H   H130  0.501816  0.861622  0.804609  0.088532
    H   H131  0.567264  0.788114  0.836771  0.183829
    H   H132  0.728708  0.887737  0.805392  0.170932
    H   H133  0.025346  0.595830  0.108055  0.123721
    H   H134  0.663329  0.961795  0.773495  0.092233
    H   H135  0.138378  0.501817  0.804609  0.088437
    H   H136  0.211886  0.567265  0.836771  0.183775
    H   H137  0.112263  0.728708  0.805391  0.170906
    H   H138  0.038205  0.663330  0.773495  0.092264
    H   H139  0.498184  0.861622  0.195391  0.088538
    H   H140  0.432736  0.788114  0.163229  0.183787
    H   H141  0.271292  0.887737  0.194609  0.170925
    H   H142  0.336671  0.961795  0.226505  0.092205
    H   H143  0.861622  0.501817  0.195391  0.088498
    H   H144  0.595830  0.974654  0.108056  0.123747
    H   H145  0.788114  0.567265  0.163229  0.183775
    H   H146  0.887737  0.728708  0.194609  0.170883
    H   H147  0.961795  0.663330  0.226505  0.092205
    H   H148  0.501816  0.138379  0.195391  0.088565
    H   H149  0.567264  0.211886  0.163229  0.183730
    H   H150  0.728708  0.112263  0.194608  0.170892
    H   H151  0.663329  0.038205  0.226505  0.092182
    H   H152  0.138378  0.498184  0.195391  0.088566
    H   H153  0.211886  0.432736  0.163229  0.183707
    H   H154  0.112263  0.271292  0.194608  0.170885
    H   H155  0.974654  0.404170  0.108055  0.123609
    H   H156  0.038205  0.336671  0.226505  0.092181
    H   H157  0.998184  0.638379  0.304609  0.088554
    H   H158  0.932736  0.711887  0.336771  0.183761
    H   H159  0.771292  0.612263  0.305392  0.170886
    H   H160  0.836671  0.538206  0.273495  0.092162
    H   H161  0.361622  0.998184  0.304609  0.088566
    H   H162  0.288114  0.932736  0.336771  0.183743
    H   H163  0.387737  0.771292  0.305391  0.170906
    H   H164  0.461795  0.836671  0.273495  0.092176
    H   H165  0.001816  0.361622  0.304609  0.088582
    H   H166  0.904170  0.474655  0.391945  0.123806
    H   H167  0.067264  0.288114  0.336771  0.183752
    H   H168  0.228708  0.387737  0.305391  0.170905
    H   H169  0.163329  0.461795  0.273495  0.092188
    H   H170  0.638378  0.001816  0.304609  0.088555
    H   H171  0.711886  0.067264  0.336771  0.183776
    H   H172  0.612263  0.228708  0.305391  0.170921
    H   H173  0.538205  0.163329  0.273495  0.092163
    H   H174  0.998184  0.361622  0.695391  0.088601
    H   H175  0.932736  0.288114  0.663229  0.183668
    H   H176  0.771292  0.387737  0.694608  0.170740
    O   O1    0.588535  0.051242  0.509587  -0.574848
    O   O2    0.448758  0.088535  0.009587  -0.574837
    O   O3    0.911465  0.448759  0.009587  -0.574954
    O   O4    0.551242  0.911465  0.009587  -0.574850
    O   O5    0.088535  0.448759  0.990413  -0.575001
    O   O6    0.448758  0.911465  0.990413  -0.574811
    O   O7    0.911465  0.551242  0.990413  -0.574872
    O   O8    0.551242  0.088535  0.990413  -0.574759
    O   O9    0.483043  0.051324  0.549679  -0.618937
    O   O10   0.948676  0.483043  0.549679  -0.618827
    O   O11   0.516957  0.948677  0.549679  -0.619067
    O   O12   0.948758  0.588535  0.509587  -0.574825
    O   O13   0.051324  0.516957  0.549679  -0.618922
    O   O14   0.483043  0.948677  0.450321  -0.619089
    O   O15   0.948676  0.516957  0.450320  -0.618889
    O   O16   0.516957  0.051324  0.450321  -0.619012
    O   O17   0.051324  0.483043  0.450321  -0.619037
    O   O18   0.983043  0.551324  0.049679  -0.618911
    O   O19   0.448676  0.983043  0.049679  -0.618973
    O   O20   0.016957  0.448677  0.049679  -0.619023
    O   O21   0.551324  0.016957  0.049679  -0.619043
    O   O22   0.983043  0.448677  0.950321  -0.619138
    O   O23   0.411465  0.948758  0.509587  -0.574835
    O   O24   0.448676  0.016957  0.950321  -0.618918
    O   O25   0.016957  0.551324  0.950320  -0.618947
    O   O26   0.551324  0.983044  0.950321  -0.619077
    O   O27   0.018928  0.088382  0.471700  -0.437184
    O   O28   0.911618  0.018928  0.471700  -0.437137
    O   O29   0.981072  0.911618  0.471700  -0.436992
    O   O30   0.088382  0.981072  0.471700  -0.436991
    O   O31   0.018928  0.911618  0.528300  -0.437062
    O   O32   0.911618  0.981072  0.528300  -0.437072
    O   O33   0.981072  0.088382  0.528300  -0.437166
    O   O34   0.051242  0.411465  0.509587  -0.574832
    O   O35   0.088382  0.018928  0.528300  -0.437253
    O   O36   0.518928  0.588382  0.971700  -0.437207
    O   O37   0.411618  0.518928  0.971700  -0.437406
    O   O38   0.481072  0.411618  0.971700  -0.437270
    O   O39   0.588382  0.481072  0.971700  -0.437077
    O   O40   0.518928  0.411618  0.028299  -0.437182
    O   O41   0.411618  0.481072  0.028299  -0.437273
    O   O42   0.481072  0.588382  0.028299  -0.437331
    O   O43   0.588382  0.518928  0.028299  -0.437465
    O   O44   0.588535  0.948758  0.490413  -0.574837
    O   O45   0.948758  0.411465  0.490413  -0.574860
    O   O46   0.411465  0.051242  0.490413  -0.574855
    O   O47   0.051242  0.588535  0.490413  -0.574828
    O   O48   0.088535  0.551242  0.009587  -0.574901
